10
Coordinates from ORCA-job r0_C4H6_sp_orca
  C   1.84441041000000     -0.09426605000000     -0.10897394000000
  C   0.60949127000000      0.38579148000000      0.09226231000000
  C   -0.60948449000000     -0.38583918000000     -0.09229508000000
  C   -1.84438072000000      0.09425615000000      0.10894849000000
  H   2.73216136000000      0.52395637000000      0.04287237000000
  H   2.00587448000000     -1.12707810000000     -0.43379978000000
  H   0.48264861000000      1.42561548000000      0.41757161000000
  H   -0.48267416000000     -1.42566819000000     -0.41760124000000
  H   -2.73222511000000     -0.52384424000000     -0.04285837000000
  H   -2.00582165000000      1.12707627000000      0.43377363000000
