6
Coordinates from ORCA-job r1_C2H4_sp_orca
  C   0.66404200000000      0.03918274000000      0.01041237000000
  C   -0.66404124000000     -0.03918116000000     -0.01037914000000
  H   1.29227049000000     -0.85634231000000      0.04054684000000
  H   1.18336413000000      1.00232672000000     -0.00151501000000
  H   -1.29227447000000      0.85634091000000     -0.04051237000000
  H   -1.18336091000000     -1.00232690000000      0.00154731000000
