16

C     -0.88959   -1.37751    0.17629
C      0.56891   -1.54698   -0.06003
C      1.29223   -0.84994   -0.90542
C      0.90288    1.52714    0.49241
C     -0.34035    1.67018    0.69591
C     -1.66441   -0.50569   -0.42646
H     -1.31483   -1.98639    0.97031
H      1.07307   -2.26383    0.58344
H      0.79492   -0.06511   -1.57693
H      2.35831   -0.77156   -0.87342
H      1.41273    1.85504   -0.43829
H      1.56688    0.93292    1.16485
H     -1.03123    2.13632   -0.03882
H     -0.87369    1.21347    1.56348
H     -2.62142   -0.19169   -0.06648
H     -1.23810    0.17149   -1.24712
16

C     -0.88559   -1.37758    0.17692
C      0.56540   -1.54617   -0.05818
C      1.28894   -0.82933   -0.89412
C      0.90398    1.50531    0.48045
C     -0.34997    1.64958    0.68563
C     -1.65324   -0.48673   -0.41745
H     -1.31527   -1.98736    0.96877
H      1.07278   -2.26480    0.58188
H      0.79447   -0.06737   -1.57977
H      2.35726   -0.76713   -0.87133
H      1.41235    1.85606   -0.43715
H      1.56670    0.93468    1.16551
H     -1.03028    2.13721   -0.03790
H     -0.87295    1.21511    1.56397
H     -2.61882   -0.18772   -0.06499
H     -1.23909    0.16929   -1.24987
16

C     -0.88160   -1.37764    0.17756
C      0.56189   -1.54537   -0.05633
C      1.28565   -0.80871   -0.88283
C      0.90507    1.48348    0.46849
C     -0.35958    1.62898    0.67536
C     -1.64207   -0.46777   -0.40845
H     -1.31570   -1.98832    0.96723
H      1.07249   -2.26578    0.58031
H      0.79402   -0.06964   -1.58261
H      2.35622   -0.76271   -0.86924
H      1.41197    1.85708   -0.43601
H      1.56652    0.93645    1.16618
H     -1.02932    2.13811   -0.03699
H     -0.87221    1.21675    1.56446
H     -2.61622   -0.18374   -0.06349
H     -1.24007    0.16710   -1.25261
16

C     -0.87760   -1.37771    0.17819
C      0.55838   -1.54457   -0.05448
C      1.28236   -0.78810   -0.87153
C      0.90617    1.46166    0.45653
C     -0.36920    1.60838    0.66509
C     -1.63090   -0.44881   -0.39945
H     -1.31614   -1.98928    0.96568
H      1.07221   -2.26676    0.57875
H      0.79357   -0.07190   -1.58546
H      2.35517   -0.75829   -0.86714
H      1.41158    1.85811   -0.43487
H      1.56635    0.93821    1.16684
H     -1.02836    2.13900   -0.03607
H     -0.87147    1.21840    1.56494
H     -2.61361   -0.17976   -0.06199
H     -1.24106    0.16491   -1.25536
16

C     -0.87360   -1.37778    0.17883
C      0.55487   -1.54376   -0.05263
C      1.27907   -0.76749   -0.86023
C      0.90726    1.43983    0.44457
C     -0.37881    1.58777    0.65482
C     -1.61973   -0.42986   -0.39045
H     -1.31658   -1.99024    0.96414
H      1.07192   -2.26774    0.57718
H      0.79313   -0.07416   -1.58830
H      2.35412   -0.75387   -0.86505
H      1.41120    1.85913   -0.43373
H      1.56617    0.93998    1.16751
H     -1.02740    2.13990   -0.03515
H     -0.87073    1.22004    1.56543
H     -2.61101   -0.17578   -0.06049
H     -1.24205    0.16271   -1.25811
16

C     -0.86960   -1.37785    0.17946
C      0.55136   -1.54296   -0.05078
C      1.27578   -0.74688   -0.84893
C      0.90836    1.41801    0.43261
C     -0.38843    1.56717    0.64455
C     -1.60856   -0.41090   -0.38145
H     -1.31702   -1.99121    0.96260
H      1.07163   -2.26872    0.57561
H      0.79268   -0.07642   -1.59114
H      2.35307   -0.74944   -0.86296
H      1.41082    1.86015   -0.43259
H      1.56599    0.94174    1.16817
H     -1.02644    2.14079   -0.03423
H     -0.86999    1.22169    1.56592
H     -2.60841   -0.17180   -0.05899
H     -1.24304    0.16052   -1.26086
16

C     -0.86561   -1.37791    0.18010
C      0.54785   -1.54216   -0.04893
C      1.27250   -0.72627   -0.83764
C      0.90945    1.39618    0.42065
C     -0.39805    1.54657    0.63427
C     -1.59739   -0.39194   -0.37245
H     -1.31746   -1.99217    0.96106
H      1.07135   -2.26970    0.57405
H      0.79223   -0.07869   -1.59399
H      2.35203   -0.74502   -0.86087
H      1.41043    1.86117   -0.43145
H      1.56582    0.94351    1.16884
H     -1.02548    2.14169   -0.03331
H     -0.86925    1.22333    1.56641
H     -2.60581   -0.16782   -0.05749
H     -1.24403    0.15833   -1.26361
16

C     -0.86161   -1.37798    0.18073
C      0.54434   -1.54135   -0.04709
C      1.26921   -0.70565   -0.82634
C      0.91055    1.37436    0.40869
C     -0.40766    1.52597    0.62400
C     -1.58622   -0.37299   -0.36345
H     -1.31790   -1.99313    0.95952
H      1.07106   -2.27067    0.57248
H      0.79178   -0.08095   -1.59683
H      2.35098   -0.74060   -0.85878
H      1.41005    1.86219   -0.43031
H      1.56564    0.94527    1.16950
H     -1.02452    2.14258   -0.03239
H     -0.86851    1.22497    1.56690
H     -2.60321   -0.16385   -0.05599
H     -1.24502    0.15613   -1.26636
16

C     -0.85761   -1.37805    0.18137
C      0.54083   -1.54055   -0.04524
C      1.26592   -0.68504   -0.81504
C      0.91164    1.35253    0.39673
C     -0.41728    1.50537    0.61373
C     -1.57506   -0.35403   -0.35445
H     -1.31834   -1.99410    0.95797
H      1.07077   -2.27165    0.57092
H      0.79133   -0.08321   -1.59967
H      2.34993   -0.73618   -0.85669
H      1.40967    1.86321   -0.42917
H      1.56546    0.94704    1.17017
H     -1.02357    2.14348   -0.03148
H     -0.86777    1.22662    1.56739
H     -2.60061   -0.15987   -0.05449
H     -1.24601    0.15394   -1.26911
16

C     -0.85361   -1.37811    0.18200
C      0.53732   -1.53975   -0.04339
C      1.26263   -0.66443   -0.80374
C      0.91274    1.33070    0.38477
C     -0.42690    1.48476    0.60346
C     -1.56389   -0.33507   -0.34545
H     -1.31878   -1.99506    0.95643
H      1.07048   -2.27263    0.56935
H      0.79089   -0.08548   -1.60252
H      2.34888   -0.73176   -0.85459
H      1.40928    1.86424   -0.42803
H      1.56529    0.94880    1.17083
H     -1.02261    2.14437   -0.03056
H     -0.86703    1.22826    1.56788
H     -2.59801   -0.15589   -0.05299
H     -1.24700    0.15174   -1.27186
16

C     -0.84962   -1.37818    0.18264
C      0.53381   -1.53894   -0.04154
C      1.25934   -0.64382   -0.79245
C      0.91383    1.30888    0.37281
C     -0.43651    1.46416    0.59319
C     -1.55272   -0.31612   -0.33645
H     -1.31922   -1.99602    0.95489
H      1.07020   -2.27361    0.56779
H      0.79044   -0.08774   -1.60536
H      2.34784   -0.72733   -0.85250
H      1.40890    1.86526   -0.42690
H      1.56511    0.95057    1.17150
H     -1.02165    2.14527   -0.02964
H     -0.86629    1.22990    1.56836
H     -2.59541   -0.15191   -0.05149
H     -1.24799    0.14955   -1.27461
16

C     -0.84562   -1.37825    0.18327
C      0.53030   -1.53814   -0.03969
C      1.25605   -0.62320   -0.78115
C      0.91493    1.28705    0.36085
C     -0.44613    1.44356    0.58291
C     -1.54155   -0.29716   -0.32745
H     -1.31966   -1.99698    0.95335
H      1.06991   -2.27459    0.56622
H      0.78999   -0.09000   -1.60820
H      2.34679   -0.72291   -0.85041
H      1.40852    1.86628   -0.42576
H      1.56494    0.95233    1.17216
H     -1.02069    2.14616   -0.02872
H     -0.86555    1.23155    1.56885
H     -2.59281   -0.14793   -0.04999
H     -1.24898    0.14736   -1.27736
16

C     -0.84162   -1.37831    0.18391
C      0.52679   -1.53734   -0.03784
C      1.25276   -0.60259   -0.76985
C      0.91602    1.26523    0.34889
C     -0.45575    1.42296    0.57264
C     -1.53038   -0.27820   -0.31844
H     -1.32010   -1.99795    0.95181
H      1.06962   -2.27557    0.56465
H      0.78954   -0.09227   -1.61105
H      2.34574   -0.71849   -0.84832
H      1.40813    1.86730   -0.42462
H      1.56476    0.95410    1.17282
H     -1.01973    2.14706   -0.02780
H     -0.86481    1.23319    1.56934
H     -2.59021   -0.14396   -0.04850
H     -1.24997    0.14516   -1.28011
16

C     -0.83762   -1.37838    0.18454
C      0.52328   -1.53654   -0.03599
C      1.24948   -0.58198   -0.75855
C      0.91712    1.24340    0.33693
C     -0.46536    1.40235    0.56237
C     -1.51921   -0.25925   -0.30944
H     -1.32054   -1.99891    0.95026
H      1.06934   -2.27654    0.56309
H      0.78909   -0.09453   -1.61389
H      2.34469   -0.71407   -0.84623
H      1.40775    1.86832   -0.42348
H      1.56458    0.95586    1.17349
H     -1.01877    2.14795   -0.02688
H     -0.86407    1.23484    1.56983
H     -2.58761   -0.13998   -0.04700
H     -1.25096    0.14297   -1.28286
16

C     -0.83363   -1.37845    0.18517
C      0.51977   -1.53573   -0.03414
C      1.24619   -0.56137   -0.74726
C      0.91821    1.22158    0.32497
C     -0.47498    1.38175    0.55210
C     -1.50804   -0.24029   -0.30044
H     -1.32098   -1.99987    0.94872
H      1.06905   -2.27752    0.56152
H      0.78865   -0.09679   -1.61673
H      2.34365   -0.70964   -0.84413
H      1.40737    1.86934   -0.42234
H      1.56441    0.95763    1.17415
H     -1.01781    2.14885   -0.02596
H     -0.86333    1.23648    1.57032
H     -2.58501   -0.13600   -0.04550
H     -1.25195    0.14078   -1.28560
16

C     -0.82963   -1.37852    0.18581
C      0.51626   -1.53493   -0.03230
C      1.24290   -0.54076   -0.73596
C      0.91931    1.19975    0.31301
C     -0.48459    1.36115    0.54183
C     -1.49687   -0.22133   -0.29144
H     -1.32142   -2.00083    0.94718
H      1.06876   -2.27850    0.55996
H      0.78820   -0.09906   -1.61958
H      2.34260   -0.70522   -0.84204
H      1.40698    1.87036   -0.42120
H      1.56423    0.95939    1.17482
H     -1.01686    2.14974   -0.02505
H     -0.86260    1.23812    1.57081
H     -2.58241   -0.13202   -0.04400
H     -1.25294    0.13858   -1.28835
16

C     -0.82563   -1.37858    0.18644
C      0.51275   -1.53413   -0.03045
C      1.23961   -0.52014   -0.72466
C      0.92040    1.17792    0.30105
C     -0.49421    1.34055    0.53155
C     -1.48570   -0.20237   -0.28244
H     -1.32185   -2.00180    0.94564
H      1.06848   -2.27948    0.55839
H      0.78775   -0.10132   -1.62242
H      2.34155   -0.70080   -0.83995
H      1.40660    1.87139   -0.42006
H      1.56405    0.96116    1.17548
H     -1.01590    2.15064   -0.02413
H     -0.86186    1.23977    1.57129
H     -2.57980   -0.12804   -0.04250
H     -1.25393    0.13639   -1.29110
16

C     -0.82163   -1.37865    0.18708
C      0.50924   -1.53332   -0.02860
C      1.23632   -0.49953   -0.71336
C      0.92150    1.15610    0.28909
C     -0.50383    1.31994    0.52128
C     -1.47453   -0.18342   -0.27344
H     -1.32229   -2.00276    0.94410
H      1.06819   -2.28046    0.55682
H      0.78730   -0.10358   -1.62526
H      2.34050   -0.69638   -0.83786
H      1.40622    1.87241   -0.41892
H      1.56388    0.96292    1.17615
H     -1.01494    2.15153   -0.02321
H     -0.86112    1.24141    1.57178
H     -2.57720   -0.12407   -0.04100
H     -1.25492    0.13420   -1.29385
16

C     -0.81764   -1.37872    0.18771
C      0.50573   -1.53252   -0.02675
C      1.23303   -0.47892   -0.70206
C      0.92259    1.13427    0.27713
C     -0.51344    1.29934    0.51101
C     -1.46336   -0.16446   -0.26444
H     -1.32273   -2.00372    0.94255
H      1.06790   -2.28144    0.55526
H      0.78685   -0.10584   -1.62811
H      2.33946   -0.69196   -0.83577
H      1.40583    1.87343   -0.41778
H      1.56370    0.96469    1.17681
H     -1.01398    2.15243   -0.02229
H     -0.86038    1.24306    1.57227
H     -2.57460   -0.12009   -0.03950
H     -1.25591    0.13200   -1.29660
16

C     -0.81364   -1.37878    0.18835
C      0.50222   -1.53172   -0.02490
C      1.22975   -0.45831   -0.69077
C      0.92369    1.11245    0.26517
C     -0.52306    1.27874    0.50074
C     -1.45219   -0.14550   -0.25544
H     -1.32317   -2.00469    0.94101
H      1.06762   -2.28241    0.55369
H      0.78641   -0.10811   -1.63095
H      2.33841   -0.68753   -0.83368
H      1.40545    1.87445   -0.41664
H      1.56352    0.96645    1.17748
H     -1.01302    2.15332   -0.02137
H     -0.85964    1.24470    1.57276
H     -2.57200   -0.11611   -0.03800
H     -1.25690    0.12981   -1.29935
16

C     -0.80964   -1.37885    0.18898
C      0.49871   -1.53091   -0.02305
C      1.22646   -0.43770   -0.67947
C      0.92478    1.09062    0.25321
C     -0.53268    1.25814    0.49047
C     -1.44102   -0.12655   -0.24644
H     -1.32361   -2.00565    0.93947
H      1.06733   -2.28339    0.55213
H      0.78596   -0.11037   -1.63379
H      2.33736   -0.68311   -0.83158
H      1.40507    1.87547   -0.41550
H      1.56335    0.96822    1.17814
H     -1.01206    2.15422   -0.02045
H     -0.85890    1.24634    1.57325
H     -2.56940   -0.11213   -0.03650
H     -1.25789    0.12762   -1.30210
16

C     -0.81364   -1.37878    0.18835
C      0.50222   -1.53172   -0.02490
C      1.22975   -0.45831   -0.69077
C      0.92369    1.11245    0.26517
C     -0.52306    1.27874    0.50074
C     -1.45219   -0.14550   -0.25544
H     -1.32317   -2.00469    0.94101
H      1.06762   -2.28241    0.55369
H      0.78641   -0.10811   -1.63095
H      2.33841   -0.68753   -0.83368
H      1.40545    1.87445   -0.41664
H      1.56352    0.96645    1.17748
H     -1.01302    2.15332   -0.02137
H     -0.85964    1.24470    1.57276
H     -2.57200   -0.11611   -0.03800
H     -1.25690    0.12981   -1.29935
16

C     -0.81764   -1.37872    0.18771
C      0.50573   -1.53252   -0.02675
C      1.23303   -0.47892   -0.70206
C      0.92259    1.13427    0.27713
C     -0.51344    1.29934    0.51101
C     -1.46336   -0.16446   -0.26444
H     -1.32273   -2.00372    0.94255
H      1.06790   -2.28144    0.55526
H      0.78685   -0.10584   -1.62811
H      2.33946   -0.69196   -0.83577
H      1.40583    1.87343   -0.41778
H      1.56370    0.96469    1.17681
H     -1.01398    2.15243   -0.02229
H     -0.86038    1.24306    1.57227
H     -2.57460   -0.12009   -0.03950
H     -1.25591    0.13200   -1.29660
16

C     -0.82163   -1.37865    0.18708
C      0.50924   -1.53332   -0.02860
C      1.23632   -0.49953   -0.71336
C      0.92150    1.15610    0.28909
C     -0.50383    1.31994    0.52128
C     -1.47453   -0.18342   -0.27344
H     -1.32229   -2.00276    0.94410
H      1.06819   -2.28046    0.55682
H      0.78730   -0.10358   -1.62526
H      2.34050   -0.69638   -0.83786
H      1.40622    1.87241   -0.41892
H      1.56388    0.96292    1.17615
H     -1.01494    2.15153   -0.02321
H     -0.86112    1.24141    1.57178
H     -2.57720   -0.12407   -0.04100
H     -1.25492    0.13420   -1.29385
16

C     -0.82563   -1.37858    0.18644
C      0.51275   -1.53413   -0.03045
C      1.23961   -0.52014   -0.72466
C      0.92040    1.17792    0.30105
C     -0.49421    1.34055    0.53155
C     -1.48570   -0.20237   -0.28244
H     -1.32185   -2.00180    0.94564
H      1.06848   -2.27948    0.55839
H      0.78775   -0.10132   -1.62242
H      2.34155   -0.70080   -0.83995
H      1.40660    1.87139   -0.42006
H      1.56405    0.96116    1.17548
H     -1.01590    2.15064   -0.02413
H     -0.86186    1.23977    1.57129
H     -2.57980   -0.12804   -0.04250
H     -1.25393    0.13639   -1.29110
16

C     -0.82963   -1.37852    0.18581
C      0.51626   -1.53493   -0.03230
C      1.24290   -0.54076   -0.73596
C      0.91931    1.19975    0.31301
C     -0.48459    1.36115    0.54183
C     -1.49687   -0.22133   -0.29144
H     -1.32142   -2.00083    0.94718
H      1.06876   -2.27850    0.55996
H      0.78820   -0.09906   -1.61958
H      2.34260   -0.70522   -0.84204
H      1.40698    1.87036   -0.42120
H      1.56423    0.95939    1.17482
H     -1.01686    2.14974   -0.02505
H     -0.86260    1.23812    1.57081
H     -2.58241   -0.13202   -0.04400
H     -1.25294    0.13858   -1.28835
16

C     -0.83363   -1.37845    0.18517
C      0.51977   -1.53573   -0.03414
C      1.24619   -0.56137   -0.74726
C      0.91821    1.22158    0.32497
C     -0.47498    1.38175    0.55210
C     -1.50804   -0.24029   -0.30044
H     -1.32098   -1.99987    0.94872
H      1.06905   -2.27752    0.56152
H      0.78865   -0.09679   -1.61673
H      2.34365   -0.70964   -0.84413
H      1.40737    1.86934   -0.42234
H      1.56441    0.95763    1.17415
H     -1.01781    2.14885   -0.02596
H     -0.86333    1.23648    1.57032
H     -2.58501   -0.13600   -0.04550
H     -1.25195    0.14078   -1.28560
16

C     -0.83762   -1.37838    0.18454
C      0.52328   -1.53654   -0.03599
C      1.24948   -0.58198   -0.75855
C      0.91712    1.24340    0.33693
C     -0.46536    1.40235    0.56237
C     -1.51921   -0.25925   -0.30944
H     -1.32054   -1.99891    0.95026
H      1.06934   -2.27654    0.56309
H      0.78909   -0.09453   -1.61389
H      2.34469   -0.71407   -0.84623
H      1.40775    1.86832   -0.42348
H      1.56458    0.95586    1.17349
H     -1.01877    2.14795   -0.02688
H     -0.86407    1.23484    1.56983
H     -2.58761   -0.13998   -0.04700
H     -1.25096    0.14297   -1.28286
16

C     -0.84162   -1.37831    0.18391
C      0.52679   -1.53734   -0.03784
C      1.25276   -0.60259   -0.76985
C      0.91602    1.26523    0.34889
C     -0.45575    1.42296    0.57264
C     -1.53038   -0.27820   -0.31844
H     -1.32010   -1.99795    0.95181
H      1.06962   -2.27557    0.56465
H      0.78954   -0.09227   -1.61105
H      2.34574   -0.71849   -0.84832
H      1.40813    1.86730   -0.42462
H      1.56476    0.95410    1.17282
H     -1.01973    2.14706   -0.02780
H     -0.86481    1.23319    1.56934
H     -2.59021   -0.14396   -0.04850
H     -1.24997    0.14516   -1.28011
16

C     -0.84562   -1.37825    0.18327
C      0.53030   -1.53814   -0.03969
C      1.25605   -0.62320   -0.78115
C      0.91493    1.28705    0.36085
C     -0.44613    1.44356    0.58291
C     -1.54155   -0.29716   -0.32745
H     -1.31966   -1.99698    0.95335
H      1.06991   -2.27459    0.56622
H      0.78999   -0.09000   -1.60820
H      2.34679   -0.72291   -0.85041
H      1.40852    1.86628   -0.42576
H      1.56494    0.95233    1.17216
H     -1.02069    2.14616   -0.02872
H     -0.86555    1.23155    1.56885
H     -2.59281   -0.14793   -0.04999
H     -1.24898    0.14736   -1.27736
16

C     -0.84962   -1.37818    0.18264
C      0.53381   -1.53894   -0.04154
C      1.25934   -0.64382   -0.79245
C      0.91383    1.30888    0.37281
C     -0.43651    1.46416    0.59319
C     -1.55272   -0.31612   -0.33645
H     -1.31922   -1.99602    0.95489
H      1.07020   -2.27361    0.56779
H      0.79044   -0.08774   -1.60536
H      2.34784   -0.72733   -0.85250
H      1.40890    1.86526   -0.42690
H      1.56511    0.95057    1.17150
H     -1.02165    2.14527   -0.02964
H     -0.86629    1.22990    1.56836
H     -2.59541   -0.15191   -0.05149
H     -1.24799    0.14955   -1.27461
16

C     -0.85361   -1.37811    0.18200
C      0.53732   -1.53975   -0.04339
C      1.26263   -0.66443   -0.80374
C      0.91274    1.33070    0.38477
C     -0.42690    1.48476    0.60346
C     -1.56389   -0.33507   -0.34545
H     -1.31878   -1.99506    0.95643
H      1.07048   -2.27263    0.56935
H      0.79089   -0.08548   -1.60252
H      2.34888   -0.73176   -0.85459
H      1.40928    1.86424   -0.42803
H      1.56529    0.94880    1.17083
H     -1.02261    2.14437   -0.03056
H     -0.86703    1.22826    1.56788
H     -2.59801   -0.15589   -0.05299
H     -1.24700    0.15174   -1.27186
16

C     -0.85761   -1.37805    0.18137
C      0.54083   -1.54055   -0.04524
C      1.26592   -0.68504   -0.81504
C      0.91164    1.35253    0.39673
C     -0.41728    1.50537    0.61373
C     -1.57506   -0.35403   -0.35445
H     -1.31834   -1.99410    0.95797
H      1.07077   -2.27165    0.57092
H      0.79133   -0.08321   -1.59967
H      2.34993   -0.73618   -0.85669
H      1.40967    1.86321   -0.42917
H      1.56546    0.94704    1.17017
H     -1.02357    2.14348   -0.03148
H     -0.86777    1.22662    1.56739
H     -2.60061   -0.15987   -0.05449
H     -1.24601    0.15394   -1.26911
16

C     -0.86161   -1.37798    0.18073
C      0.54434   -1.54135   -0.04709
C      1.26921   -0.70565   -0.82634
C      0.91055    1.37436    0.40869
C     -0.40766    1.52597    0.62400
C     -1.58622   -0.37299   -0.36345
H     -1.31790   -1.99313    0.95952
H      1.07106   -2.27067    0.57248
H      0.79178   -0.08095   -1.59683
H      2.35098   -0.74060   -0.85878
H      1.41005    1.86219   -0.43031
H      1.56564    0.94527    1.16950
H     -1.02452    2.14258   -0.03239
H     -0.86851    1.22497    1.56690
H     -2.60321   -0.16385   -0.05599
H     -1.24502    0.15613   -1.26636
16

C     -0.86561   -1.37791    0.18010
C      0.54785   -1.54216   -0.04893
C      1.27250   -0.72627   -0.83764
C      0.90945    1.39618    0.42065
C     -0.39805    1.54657    0.63427
C     -1.59739   -0.39194   -0.37245
H     -1.31746   -1.99217    0.96106
H      1.07135   -2.26970    0.57405
H      0.79223   -0.07869   -1.59399
H      2.35203   -0.74502   -0.86087
H      1.41043    1.86117   -0.43145
H      1.56582    0.94351    1.16884
H     -1.02548    2.14169   -0.03331
H     -0.86925    1.22333    1.56641
H     -2.60581   -0.16782   -0.05749
H     -1.24403    0.15833   -1.26361
16

C     -0.86960   -1.37785    0.17946
C      0.55136   -1.54296   -0.05078
C      1.27578   -0.74688   -0.84893
C      0.90836    1.41801    0.43261
C     -0.38843    1.56717    0.64455
C     -1.60856   -0.41090   -0.38145
H     -1.31702   -1.99121    0.96260
H      1.07163   -2.26872    0.57561
H      0.79268   -0.07642   -1.59114
H      2.35307   -0.74944   -0.86296
H      1.41082    1.86015   -0.43259
H      1.56599    0.94174    1.16817
H     -1.02644    2.14079   -0.03423
H     -0.86999    1.22169    1.56592
H     -2.60841   -0.17180   -0.05899
H     -1.24304    0.16052   -1.26086
16

C     -0.87360   -1.37778    0.17883
C      0.55487   -1.54376   -0.05263
C      1.27907   -0.76749   -0.86023
C      0.90726    1.43983    0.44457
C     -0.37881    1.58777    0.65482
C     -1.61973   -0.42986   -0.39045
H     -1.31658   -1.99024    0.96414
H      1.07192   -2.26774    0.57718
H      0.79313   -0.07416   -1.58830
H      2.35412   -0.75387   -0.86505
H      1.41120    1.85913   -0.43373
H      1.56617    0.93998    1.16751
H     -1.02740    2.13990   -0.03515
H     -0.87073    1.22004    1.56543
H     -2.61101   -0.17578   -0.06049
H     -1.24205    0.16271   -1.25811
16

C     -0.87760   -1.37771    0.17819
C      0.55838   -1.54457   -0.05448
C      1.28236   -0.78810   -0.87153
C      0.90617    1.46166    0.45653
C     -0.36920    1.60838    0.66509
C     -1.63090   -0.44881   -0.39945
H     -1.31614   -1.98928    0.96568
H      1.07221   -2.26676    0.57875
H      0.79357   -0.07190   -1.58546
H      2.35517   -0.75829   -0.86714
H      1.41158    1.85811   -0.43487
H      1.56635    0.93821    1.16684
H     -1.02836    2.13900   -0.03607
H     -0.87147    1.21840    1.56494
H     -2.61361   -0.17976   -0.06199
H     -1.24106    0.16491   -1.25536
16

C     -0.88160   -1.37764    0.17756
C      0.56189   -1.54537   -0.05633
C      1.28565   -0.80871   -0.88283
C      0.90507    1.48348    0.46849
C     -0.35958    1.62898    0.67536
C     -1.64207   -0.46777   -0.40845
H     -1.31570   -1.98832    0.96723
H      1.07249   -2.26578    0.58031
H      0.79402   -0.06964   -1.58261
H      2.35622   -0.76271   -0.86924
H      1.41197    1.85708   -0.43601
H      1.56652    0.93645    1.16618
H     -1.02932    2.13811   -0.03699
H     -0.87221    1.21675    1.56446
H     -2.61622   -0.18374   -0.06349
H     -1.24007    0.16710   -1.25261
16

C     -0.88559   -1.37758    0.17692
C      0.56540   -1.54617   -0.05818
C      1.28894   -0.82933   -0.89412
C      0.90398    1.50531    0.48045
C     -0.34997    1.64958    0.68563
C     -1.65324   -0.48673   -0.41745
H     -1.31527   -1.98736    0.96877
H      1.07278   -2.26480    0.58188
H      0.79447   -0.06737   -1.57977
H      2.35726   -0.76713   -0.87133
H      1.41235    1.85606   -0.43715
H      1.56670    0.93468    1.16551
H     -1.03028    2.13721   -0.03790
H     -0.87295    1.21511    1.56397
H     -2.61882   -0.18772   -0.06499
H     -1.23909    0.16929   -1.24987
