16

C      0.04326   -1.02535   -0.34973
C      1.05603   -1.38804    0.72553
C      2.35123   -0.59421    0.64922
C      1.38250    1.47667    0.90075
C     -0.04464    1.88475    0.56840
C     -1.08897   -0.10016    0.06936
H      0.10663   -1.51749   -1.31874
H      0.89238   -2.24619    1.37514
H      2.89134   -0.61378    1.59433
H      2.70851   -0.54864   -0.37821
H      2.07336    1.80788    0.12723
H      1.49750    1.34191    1.97497
H     -0.14353    2.30189   -0.43238
H     -0.65694    2.06728    1.44995
H     -1.41679   -0.32976    1.08184
H     -1.60386    0.30749   -0.79899
