16

C     -0.81902   -0.50239   -0.28303
C      0.55914   -0.84540    0.26143
C      1.70529   -0.06290   -0.36113
C      1.28298    1.60582    1.16441
C     -0.08308    2.27340    1.12044
C     -1.34546    0.92414   -0.24537
H     -1.39238   -1.30927   -0.73626
H      0.67435   -1.61846    1.01926
H      1.42248    0.44309   -1.28271
H      2.67610   -0.41680   -0.01819
H      2.04528    2.17624    0.63634
H      1.36717    0.92590    2.01056
H     -0.71204    2.02454    1.97357
H     -0.08873    3.17553    0.51095
H     -2.25439    0.95934    0.35290
H     -1.01395    1.47479   -1.12412
