16

C     -0.33719   -0.66106   -1.76458
C      0.03687   -1.56905   -0.60310
C      0.92859   -0.92333    0.44640
C      0.63671    1.34178    0.17373
C     -0.80366    1.60461   -0.23854
C     -1.66885    0.07234   -1.71608
H      0.36782   -0.57849   -2.59002
H     -0.19226   -2.63317   -0.62161
H      0.45227   -0.97069    1.42425
H      1.96662   -0.93690    0.11834
H      1.32361    1.38874   -0.66965
H      0.79716    1.55567    1.22913
H     -0.85941    2.42393   -0.95335
H     -1.51180    1.25485    0.51081
H     -2.39889   -0.44723   -1.09768
H     -1.80102    0.73087   -2.57293
