16

C     -1.27744   -1.87344    0.46771
C      0.22290   -1.95473    0.23148
C      1.05200   -0.68199    0.15222
C     -0.21845    0.66587    1.51585
C     -1.55531    0.83480    0.81016
C     -2.08871   -0.99533   -0.47267
H     -1.72541   -2.44938    1.27568
H      0.68364   -2.93747    0.14696
H      0.87327   -0.13700   -0.77318
H      1.91934   -0.72893    0.80861
H      0.42406    1.53704    1.39932
H     -0.22782   -0.08884    2.30049
H     -2.37361    0.72875    1.52042
H     -1.47063    1.40409   -0.11400
H     -3.14734   -0.95653   -0.22144
H     -1.58766   -0.87656   -1.43193
