16

C     -1.10871   -0.93199    0.64989
C      0.35916   -1.33011    0.66727
C      1.44191   -0.36784    0.20335
C      0.74939    1.80629   -0.08625
C     -0.74937    1.84973    0.16976
C     -1.65704   -0.14220   -0.52872
H     -1.73187   -1.23976    1.48784
H      0.62645   -2.32356    1.02341
H      1.65141   -0.56104   -0.84742
H      2.05522   -0.08345    1.05676
H      1.30011    2.24107    0.74623
H      0.99011    1.78217   -1.14776
H     -1.27287    2.43105   -0.58743
H     -0.99986    1.64682    1.20967
H     -2.69252    0.15674   -0.37463
H     -1.07501   -0.30264   -1.43471
