16

C     -1.29946   -1.02129   -0.52009
C      0.10053   -1.61570   -0.53202
C      1.33550   -0.99764    0.10551
C      1.40860    1.01315    1.21981
C      0.11842    1.60579    0.67400
C     -1.67147    0.22174    0.27366
H     -2.09428   -1.55893   -1.03430
H      0.23503   -2.57362   -1.03153
H      1.94389   -0.56536   -0.68714
H      1.52119   -1.50960    1.04824
H      2.28913    1.44498    0.74701
H      1.28723    0.60910    2.22348
H      0.19198    1.78075   -0.39805
H     -0.43591    2.12580    1.45352
H     -1.78689   -0.05386    1.32058
H     -2.14254    0.95022   -0.38417
