16

C     -0.42674   -0.41548   -1.73903
C      1.08704   -0.39271   -1.59290
C      1.66383   -1.47076   -0.68811
C      0.73861   -0.38594    1.11672
C     -0.04123    0.88971    0.83688
C     -1.14858    0.79845   -1.17434
H     -0.92528   -1.21641   -2.28233
H      1.68170    0.35072   -2.12101
H      1.06062   -2.37701   -0.67550
H      2.73168   -1.32872   -0.53040
H      1.73619   -0.16258    1.49126
H      0.07430   -1.23011    1.29388
H     -0.95998    0.93327    1.41939
H      0.59439    1.69283    0.46766
H     -2.11962    0.52378   -0.76574
H     -0.78784    1.71483   -1.63849
