16

C     -1.14357   -1.55101    0.02898
C      0.35153   -1.81804   -0.05368
C      1.33298   -1.05827   -0.93292
C      1.04507    0.85903    0.30455
C     -0.44586    1.15022    0.22693
C     -1.82497   -0.42064   -0.72701
H     -1.75468   -2.19416    0.65994
H      0.73372   -2.58172    0.62156
H      2.36823   -1.28595   -0.68442
H      0.89418   -0.67753   -1.85368
H      1.64037    1.47317   -0.36909
H      1.35092    0.36341    1.22442
H     -0.91576    1.02672    1.20124
H     -0.69533    1.78521   -0.62154
H     -2.71076   -0.03493   -0.22509
H     -1.59317   -0.46928   -1.78967
