16

C     -0.31420   -1.40728    0.48320
C      1.01440   -1.66484   -0.21102
C      1.42817   -1.04334   -1.53620
C      0.73178    1.14803   -1.47962
C     -0.12509    1.26734   -0.22852
C     -1.42678   -0.62588   -0.19880
H     -0.43910   -1.74251    1.51141
H      1.69756   -2.36438    0.26768
H      2.47674   -0.75075   -1.52165
H      0.78873   -1.40877   -2.33801
H      1.70871    1.60071   -1.31828
H      0.13109    1.03605   -2.38071
H     -0.97754    1.92775   -0.37865
H      0.42319    1.03438    0.68277
H     -2.14089   -0.20089    0.50460
H     -1.55125   -0.93368   -1.23566
