16

C     -0.08663   -1.59002    1.03798
C      1.30800   -1.24450    0.53895
C      1.40346   -0.41417   -0.73187
C      1.25780    1.50547    0.52671
C     -0.23347    1.58822    0.81478
C     -1.10597   -0.48661    1.27668
H     -0.32505   -2.63351    1.23673
H      2.17146   -1.60275    1.09689
H      0.47480   -0.42563   -1.30001
H      2.43243   -0.25071   -1.04785
H      1.55680    2.14387   -0.30298
H      1.83013    1.15345    1.38336
H     -0.41628    1.98580    1.81170
H     -0.81628    1.68365   -0.09986
H     -1.18800   -0.29721    2.34566
H     -1.82836   -0.48239    0.46215
