16

C     -1.28709   -1.85617    0.03613
C      0.19654   -1.96630   -0.28032
C      0.65281   -1.31874   -1.57879
C      0.50610    0.93848   -1.16203
C     -0.70405    1.49565   -0.42798
C     -1.83728   -0.43868    0.07574
H     -1.89182   -2.73465    0.25469
H      0.82394   -2.57310    0.37034
H     -0.13464   -1.35842   -2.32957
H      1.73872   -1.32674   -1.65661
H      1.35818    0.83858   -0.49171
H      0.44830    1.13130   -2.23198
H     -1.47714    1.88600   -1.08775
H     -0.46332    1.82798    0.58047
H     -2.46874   -0.30931   -0.80166
H     -1.85052   -0.11719    1.11583
