16

C     -1.62892   -0.91886   -0.22379
C     -0.26052   -1.54934   -0.43210
C      0.98050   -0.67619   -0.53717
C      0.37745    1.23261    0.59555
C     -0.55548    1.93159   -0.38156
C     -2.02556    0.29633   -1.04814
H     -2.31955   -1.41244    0.45784
H     -0.17600   -2.63171   -0.51294
H      1.07343   -0.27674   -1.54569
H      1.71337   -0.94034    0.22339
H     -0.15875    0.72835    1.39776
H      1.38339    1.64792    0.56465
H     -0.10505    2.07638   -1.36211
H     -1.30008    2.53020    0.14053
H     -2.90241    0.78526   -0.62693
H     -1.67113    0.19789   -2.07284
