16

C     -0.54747   -1.31366    1.13859
C      0.81728   -1.74891    0.62727
C      1.77268   -0.76372   -0.02860
C      1.26189    1.06673    1.26709
C     -0.18040    1.44147    0.96203
C     -1.42407   -0.38006    0.31791
H     -0.88322   -1.70498    2.09742
H      1.12344   -2.78058    0.79193
H      1.39427   -0.41396   -0.98766
H      2.78567   -0.86273    0.35789
H      1.97408    1.71116    0.75441
H      1.37269    0.49189    2.18503
H     -0.30118    1.85785   -0.03666
H     -0.74205    1.60670    1.87995
H     -2.33558   -0.08977    0.83775
H     -1.21763   -0.46547   -0.74764
