16

C     -0.53175   -1.41608   -0.39025
C      0.88217   -0.90890   -0.15145
C      1.26616    0.38256   -0.85729
C      0.57276    1.94477    0.68186
C     -0.61287    1.20527    1.28280
C     -1.63180   -0.52345    0.16350
H     -0.71992   -2.35560   -0.90707
H      1.54394   -1.50071    0.47864
H      0.55889    0.63552   -1.64538
H      2.32107    0.61476   -0.72105
H      0.30428    2.65908   -0.09469
H      1.44287    1.94129    1.33626
H     -1.52522    1.79256    1.19315
H     -0.28559    0.48518    2.03093
H     -2.06119   -0.97396    1.05681
H     -2.04226    0.08944   -0.63726
