16

C     -0.96247   -1.35656   -0.24191
C     -0.20291   -0.91044   -1.48185
C      1.28819   -0.66971   -1.30240
C      0.80304    1.34234   -0.29913
C     -0.66935    1.69257   -0.14706
C     -1.68343   -0.25729    0.52318
H     -1.04216   -2.41434    0.00293
H     -0.74288   -0.80087   -2.42080
H      1.75766   -0.38793   -2.24342
H      1.69790   -1.17651   -0.43027
H      1.24318    1.86397   -1.14737
H      1.23023    1.00448    0.64358
H     -1.19662    1.72146   -1.09916
H     -0.86874    2.22838    0.77949
H     -1.31503   -0.20445    1.54632
H     -2.64727   -0.04675    0.06274
