16

C     -0.48389   -1.27763    0.40501
C      0.84837   -1.26333   -0.32869
C      1.84737   -0.11695   -0.29141
C      1.52761    1.71416    1.06323
C      0.08534    1.43615    1.45858
C     -1.35662   -0.03229    0.43683
H     -0.85796   -2.23159    0.77275
H      1.10253   -2.13655   -0.92711
H      1.71397    0.48234   -1.19051
H      2.70198   -0.40917    0.31649
H      1.63269    2.44644    0.26444
H      2.23191    1.47710    1.85891
H      0.04684    0.76694    2.31648
H     -0.57278    2.23188    1.11358
H     -2.05938   -0.05672    1.26801
H     -1.41086    0.41535   -0.55413
