16

C     -1.19386   -1.13685    0.54906
C      0.26665   -1.49935    0.77024
C      1.40105   -0.64637    0.22332
C      0.41818    1.41209    0.51816
C     -1.05068    1.54414    0.14566
C     -1.68482   -0.48203   -0.73301
H     -1.88039   -1.34024    1.36914
H      0.49067   -2.38530    1.36195
H      1.45784   -0.72468   -0.86110
H      2.17995   -0.47941    0.96546
H      1.07829    1.80683   -0.25240
H      0.55740    1.33186    1.59497
H     -1.20962    2.03421   -0.81345
H     -1.71583    1.47748    1.00502
H     -2.77008   -0.39921   -0.75901
H     -0.96248   -0.50060   -1.54738
