16

C     -0.01667   -1.64750    0.22480
C      1.40797   -1.95297   -0.21168
C      2.35371   -0.78350   -0.43854
C      1.24279    1.22746   -0.54898
C     -0.26359    1.27787   -0.75398
C     -0.84802   -0.94277   -0.83621
H     -0.40135   -2.09421    1.14003
H      1.71021   -2.98517   -0.38023
H      2.67292   -0.78947   -1.47940
H      2.86229   -0.54505    0.49409
H      1.50422    1.45312    0.48353
H      1.77770    1.45542   -1.46943
H     -0.55543    1.44908   -1.78880
H     -0.80737    1.50475    0.16155
H     -1.85351   -0.73812   -0.47228
H     -0.43961   -1.11704   -1.83026
