16

C     -1.05267   -1.02695   -0.08116
C      0.21947   -1.44878    0.63798
C      1.55565   -1.29454   -0.07221
C      1.61483    0.91406    0.56721
C      0.31446    1.42150    1.17156
C     -1.35352    0.46403   -0.08568
H     -1.74239   -1.77769   -0.46307
H      0.11510   -1.84421    1.64692
H      2.34919   -1.78939    0.48524
H      1.46053   -1.09083   -1.13746
H      1.74161    1.27267   -0.45291
H      2.33815    0.65947    1.34008
H      0.03929    0.91061    2.09276
H      0.06309    2.42970    0.84648
H     -2.12942    0.69932    0.64092
H     -1.05763    0.90228   -1.03736
