16

C     -1.33386   -1.79725   -0.14806
C      0.11628   -2.13313   -0.46067
C      0.97260   -1.41130   -1.48986
C      1.23502    0.41852   -0.12123
C     -0.22572    0.80637    0.05065
C     -1.98715   -0.50751   -0.62066
H     -1.93144   -2.50843    0.41969
H      0.55972   -2.92900    0.13529
H      0.39400   -0.95614   -2.29197
H      2.01542   -1.72304   -1.46375
H      1.76830    1.05130   -0.82873
H      1.63689   -0.18236    0.69288
H     -0.55903    1.47750   -0.73917
H     -0.52091    0.69830    1.09301
H     -2.66235   -0.07593    0.11634
H     -2.03004   -0.48804   -1.70837
