16

C     -0.90898   -1.62938    0.51101
C      0.56833   -1.39668    0.23379
C      1.12485   -0.28378   -0.64101
C      0.58672    1.30776    0.92986
C     -0.92681    1.15927    0.95929
C     -1.99510   -0.66510    0.05930
H     -1.20196   -2.53477    1.03982
H      1.26441   -2.06833    0.73338
H      0.44822    0.02242   -1.43708
H      2.20659   -0.19023   -0.56090
H      0.93894    2.11301    0.28732
H      1.09001    0.84340    1.77627
H     -1.40280    1.73874    0.16999
H     -1.26138    0.86948    1.95399
H     -1.97268   -0.54533   -1.02259
H     -2.83419   -0.61555    0.75125
