16

C     -0.42517   -1.61794    0.11453
C      0.99769   -1.54476   -0.41798
C      1.58939   -0.37452   -1.18869
C      1.31093    1.19875    0.46586
C     -0.19248    1.14513    0.69082
C     -1.47065   -0.55350   -0.18126
H     -0.72371   -2.49403    0.68773
H      1.63154   -2.40643   -0.21555
H      0.89761    0.03889   -1.92070
H      2.67720   -0.35686   -1.14742
H      1.88394    0.59941    1.17140
H      1.62409    2.06204   -0.11896
H     -0.73149    1.78981   -0.00142
H     -0.41028    0.82643    1.70882
H     -2.22736   -0.46989    0.59703
H     -1.54194   -0.37829   -1.25342
