16

C     -0.85544   -1.00321   -0.19520
C      0.63510   -1.28689   -0.08908
C      1.59020   -0.29404    0.55558
C      0.90026    1.89846    0.47050
C     -0.58245    2.10244    0.19909
C     -1.33413    0.24361   -0.92310
H     -1.54444   -1.79188    0.10229
H      0.99708   -2.27134   -0.38068
H      1.49328   -0.36800    1.63746
H      2.43177   -0.12237   -0.11346
H      1.49188    2.07050   -0.42712
H      1.13180    2.06675    1.52094
H     -0.76552    2.77624   -0.63627
H     -1.20171    1.87933    1.06631
H     -2.36952    0.46722   -0.67154
H     -0.72630    0.41736   -1.80948
