16

C     -0.23558   -1.23306    0.07152
C      1.10073   -1.15174   -0.65036
C      1.83228    0.15610   -0.91106
C      1.35998    1.93115    0.47328
C      0.10071    1.40474    1.14474
C     -1.22886   -0.08303    0.00530
H     -0.46534   -2.14294    0.62336
H      1.53926   -2.07900   -1.01518
H      1.40100    0.63172   -1.79032
H      2.83766    0.10294   -0.49669
H      1.15954    2.62283   -0.34326
H      2.22299    1.87842    1.13493
H     -0.70066    2.14072    1.10654
H      0.33069    0.61329    1.85611
H     -1.97866   -0.14278    0.79242
H     -1.25874    0.36220   -0.98777
