16

C     -0.26971   -0.73730    0.10422
C      1.19322   -0.58368   -0.28266
C      1.67454    0.47028   -1.26808
C      0.99367    2.14341    0.15576
C     -0.33205    1.96842    0.88072
C     -1.37006    0.25384   -0.24279
H     -0.51665   -1.59353    0.72960
H      1.92013   -1.26858    0.15062
H      2.72681    0.72545   -1.15421
H      1.04763    0.47857   -2.15816
H      0.90729    2.76209   -0.73592
H      1.83299    1.98766    0.83151
H     -1.06855    2.71602    0.59087
H     -0.25074    1.37642    1.79081
H     -2.24092    0.15163    0.40257
H     -1.28362    0.66769   -1.24607
