16

C     -0.61101   -0.86305    0.35540
C      0.78116   -1.04897   -0.22832
C      1.70914    0.15547   -0.26997
C      0.55760    1.80565    0.84409
C     -0.84053    1.87619    0.24914
C     -1.60677   -0.14130   -0.53962
H     -0.83826   -1.26871    1.33978
H      1.08046   -2.02905   -0.59582
H      2.49248    0.06149    0.48028
H      1.66090    0.64015   -1.24366
H      1.19905    2.60653    0.48011
H      0.59443    1.24744    1.77810
H     -0.83928    2.25365   -0.77206
H     -1.59576    1.93224    1.03133
H     -2.60656   -0.11264   -0.10957
H     -1.27777   -0.11737   -1.57717
