16

C     -0.93909   -0.64289    0.70432
C      0.17993   -1.61047    0.35073
C      1.58944   -1.09780    0.09774
C      1.24407    0.73447   -1.24902
C      0.01488    1.49995   -0.78337
C     -1.69272   -0.00101   -0.45049
H     -1.20828   -0.50355    1.74995
H     -0.03896   -2.67562    0.40318
H      1.96227   -0.56256    0.96943
H      2.08681   -1.67541   -0.67964
H      1.02034    0.09774   -2.10332
H      2.16160    1.22817   -0.93321
H     -0.49853    1.97182   -1.61948
H      0.07131    1.76707    0.27057
H     -1.70862   -0.65777   -1.31867
H     -2.37287    0.78740   -0.13249
