16

C     -0.70930   -0.90055   -0.36021
C      0.61173   -1.05699   -1.09765
C      1.49650    0.14464   -1.39233
C      0.76459    1.74758    0.08590
C     -0.73598    1.81455   -0.15393
C     -1.72357   -0.03556   -1.09272
H     -0.90952   -1.45065    0.55767
H      0.86257   -2.04511   -1.47961
H      1.14398    0.69035   -2.26597
H      2.48358    0.01461   -0.95178
H      1.30021    2.57116   -0.38333
H      1.04009    1.13617    0.94358
H     -1.28360    1.69779    0.77978
H     -0.98763    2.34566   -1.07040
H     -2.67770    0.03241   -0.57277
H     -1.49350    0.04378   -2.15390
