16

C     -1.35337   -2.14820    0.55037
C      0.09741   -1.94067    0.95729
C      0.99470   -1.21217   -0.03150
C      0.29066    0.82309    0.77615
C     -1.19947    0.99261    0.52225
C     -2.33126   -0.99658    0.72658
H     -1.68075   -3.14744    0.26835
H      0.43709   -2.35189    1.90636
H      0.59854   -1.26733   -1.04409
H      2.00961   -1.07633    0.33839
H      0.89127    1.35556    0.04057
H      0.50490    0.54894    1.80779
H     -1.42013    1.04023   -0.54282
H     -1.69676    1.45366    1.37400
H     -2.91409   -0.85982   -0.18277
H     -2.55918   -0.87339    1.78404
