16

C     -0.72655   -1.26339    0.32746
C      0.47027   -1.53149   -0.57208
C      1.19573   -0.37011   -1.23425
C      0.60020    1.52822   -0.08015
C     -0.64842    1.42199    0.78204
C     -1.82518   -0.32194   -0.14179
H     -0.74659   -1.76119    1.29544
H      0.79149   -2.56070   -0.72291
H      0.72665   -0.15069   -2.19193
H      2.23288   -0.33434   -0.90507
H      0.40339    2.02829   -1.02700
H      1.49840    1.51146    0.53491
H     -1.41288    2.15193    0.52104
H     -0.46980    0.92487    1.73405
H     -2.72293   -0.43604    0.46349
H     -1.70060    0.05039   -1.15725
