16

C     -0.86309   -1.71376    0.13287
C      0.57082   -1.94072   -0.32084
C      1.35633   -0.91839   -1.12791
C      0.90703    1.26521   -0.56196
C      0.32816    1.00908    0.82115
C     -1.46403   -0.32463    0.28374
H     -1.49915   -2.57667    0.32265
H      1.02402   -2.90426   -0.09410
H      0.91801   -0.81334   -2.11894
H      2.37327   -0.85039   -0.74512
H      0.14679    1.49706   -1.30601
H      1.94422    1.59297   -0.51575
H     -0.20304    1.88738    1.18413
H      0.83571    0.21093    1.36030
H     -1.84463   -0.15771    1.29002
H     -1.79267    0.02478   -0.69362
