16

C     -0.36535   -1.64218    0.09029
C      0.78763   -1.44872   -0.88265
C      1.30541   -0.05679   -1.21131
C      0.30719    1.73115   -0.16389
C     -0.32631    1.10872    1.07100
C     -1.48776   -0.61566    0.09269
H     -0.38101   -2.52747    0.72371
H      1.26278   -2.32264   -1.32506
H      0.92562    0.24542   -2.18586
H      2.23856    0.10516   -0.67436
H      1.23431    2.24359    0.08746
H     -0.42818    1.94759   -0.93701
H     -1.11599    1.74732    1.46333
H      0.32309    0.39774    1.57907
H     -2.12107   -0.68574    0.97548
H     -1.70233   -0.29405   -0.92508
