16

C     -1.33882   -1.28098   -0.02216
C      0.02960   -1.40457    0.63021
C      1.24591   -0.86396   -0.10591
C      1.10673    1.34071    0.53465
C     -0.39874    1.55608    0.56421
C     -1.81260    0.08551   -0.49313
H     -1.96484   -2.16429   -0.13637
H      0.09755   -1.93799    1.57682
H      2.16815   -1.02822    0.44890
H      1.05193   -0.75322   -1.17148
H      1.53321    1.25640    1.53283
H      1.58324    1.65833   -0.39130
H     -0.69819    2.33539   -0.13459
H     -0.82664    1.22323    1.50838
H     -2.70009    0.39634    0.05557
H     -1.47268    0.27009   -1.51082
