16

C     -2.05314   -1.52069    0.17671
C     -0.57016   -1.84197    0.07204
C      0.10707   -1.46600   -1.23699
C      0.62733    0.68239   -0.60135
C     -0.51676    1.14423    0.28830
C     -2.46744   -0.06815    0.35569
H     -2.78371   -2.32678    0.13562
H     -0.09321   -2.38776    0.88434
H      1.13921   -1.80979   -1.27947
H     -0.61919   -1.25415   -2.01993
H      0.54231    1.01747   -1.63375
H      1.51712    0.42158   -0.03074
H     -1.04676    1.98722   -0.15193
H     -0.34584    0.87117    1.32828
H     -2.70051    0.12919    1.40071
H     -2.87019    0.31618   -0.57994
