16

C     -0.92203   -1.82047   -0.10065
C      0.50543   -2.00969   -0.59058
C      1.23696   -0.99617   -1.45730
C      0.98247    0.93924   -0.24089
C     -0.40035    1.04387    0.38408
C     -1.79049   -0.60847   -0.40131
H     -1.35181   -2.63475    0.48024
H      0.99497   -2.95618   -0.36757
H      0.62863   -0.71653   -2.31582
H      2.31457   -1.04902   -1.31140
H      1.08793    1.54057   -1.14235
H      1.73301    0.63127    0.48518
H     -0.99997    1.84034   -0.05346
H     -0.44599    0.59156    1.37336
H     -2.56714   -0.47189    0.34935
H     -1.74913   -0.32524   -1.45173
