16

C     -0.10560   -1.76494    0.74352
C      1.13195   -1.81580   -0.13928
C      1.60037   -0.65816   -1.00761
C      1.49227    0.90279    0.67822
C     -0.01962    0.90821    0.84524
C     -1.29367   -0.92476    0.30067
H     -0.15732   -2.35896    1.65438
H      1.72363   -2.72907   -0.10668
H      0.83277   -0.33513   -1.70886
H      2.68494   -0.57640   -1.05586
H      2.01425    0.23956    1.36597
H      1.84902    1.79295    0.16277
H     -0.26697    0.85382    1.90411
H     -0.52311    1.37515    0.00038
H     -1.46020   -1.05526   -0.76730
H     -2.01238   -0.69762    1.08630
