16

C     -1.43549   -1.18901    0.51697
C     -0.19900   -1.54192   -0.29539
C      0.84940   -0.47573   -0.57410
C      1.03594    1.55451    0.49061
C     -0.04599    1.91146    1.49845
C     -1.53226    0.19710    1.13576
H     -2.25273   -1.90181    0.61310
H     -0.10364   -2.53931   -0.72121
H      0.57438    0.00778   -1.50999
H      1.77937   -0.81352   -0.11982
H      0.90051    2.10575   -0.43843
H      1.95143    1.25927    1.00057
H     -0.70904    2.70765    1.16411
H      0.23851    1.67279    2.52190
H     -1.51745    0.05929    2.21562
H     -2.02970    0.82795    0.40099
