16

C     -0.46780   -1.40078   -0.19072
C      1.00436   -1.77406   -0.27344
C      2.08134   -0.72614   -0.50903
C      1.08113    1.16573    0.33399
C     -0.42924    1.20828    0.50916
C     -1.06925   -0.32312   -1.07978
H     -1.06773   -1.91651    0.55716
H      1.27757   -2.82114   -0.15428
H      2.13655   -0.48310   -1.56884
H      2.85397   -0.78166    0.25601
H      1.39561    1.69547   -0.56368
H      1.57496    1.02717    1.29434
H     -0.90940    2.02103   -0.03325
H     -0.77359    0.68282    1.39835
H     -2.14743   -0.23487   -0.95701
H     -0.43022   -0.04455   -1.91606
