16

C     -1.07887   -1.16326   -0.72612
C      0.07916   -1.53787    0.18605
C      1.39099   -0.83606   -0.13036
C      0.86254    1.12629    0.94677
C     -0.59155    1.56624    0.87056
C     -1.61707    0.25934   -0.71685
H     -1.47405   -1.91247   -1.41002
H     -0.03348   -2.35647    0.89485
H      1.41695   -0.49171   -1.16287
H      2.18883   -1.13242    0.54858
H      1.49703    1.65046    0.23403
H      1.09263    0.69365    1.91899
H     -1.20579    1.12556    1.65404
H     -0.71558    2.50882    0.33999
H     -2.59406    0.27888   -0.23683
H     -1.16066    0.82909   -1.52456
