16

C     -0.93101   -1.59360   -0.57344
C      0.58529   -1.63456   -0.46136
C      1.14031   -0.88528    0.74034
C     -0.25678    0.88525    1.19159
C     -1.70110    0.76955    0.72869
C     -1.48519   -0.35614   -1.26273
H     -1.51217   -2.42106   -0.16998
H      1.17315   -2.24238   -1.14705
H      0.91428   -1.44305    1.64760
H      1.98466   -0.26856    0.43695
H      0.31735    1.51767    0.51649
H     -0.18517    0.71926    2.26520
H     -2.24572   -0.04063    1.21068
H     -2.07590    1.69051    0.28519
H     -2.54770   -0.45399   -1.47908
H     -0.70677    0.25339   -1.71865
