16

C     -0.36376   -1.20785    0.77016
C      1.14101   -1.11868    0.97305
C      2.09208   -0.86161   -0.18580
C      1.35962    1.29372   -0.51493
C     -0.00440    1.53572    0.11325
C     -1.08429   -0.44343   -0.32987
H     -0.94585   -1.79532    1.47815
H      1.53585   -1.27845    1.97494
H      1.79030   -1.43048   -1.06367
H      3.07856   -0.53277    0.13674
H      2.13648    1.77815    0.07426
H      1.29678    1.07862   -1.58035
H     -0.63901    2.15201   -0.52141
H     -0.01289    1.39813    1.19322
H     -0.73848   -0.74856   -1.31610
H     -2.03865   -0.03365   -0.00338
