16

C     -0.47922   -1.30795    0.53456
C      0.65233   -1.56053   -0.44993
C      1.44151   -0.35675   -0.94151
C      0.95771    1.23198    0.64975
C     -0.49717    1.50803    0.99739
C     -1.58380   -0.33329    0.15576
H     -0.45201   -1.84578    1.48071
H      0.89606   -2.57725   -0.75336
H      0.94491    0.09601   -1.79809
H      2.49033   -0.43690   -0.66065
H      1.36543    1.98623   -0.02123
H      1.43994    0.61346    1.40488
H     -0.74849    1.25424    2.02586
H     -0.97117    2.22678    0.33101
H     -2.42236   -0.38919    0.84786
H     -1.53569   -0.01283   -0.88362
