16

C     -0.79700   -1.64874    0.96850
C      0.69086   -1.42839    1.19469
C      1.54415   -0.49599    0.34847
C      0.46937    1.53619    0.42154
C     -0.73867    1.27428    1.30796
C     -1.71511   -0.58776    0.38118
H     -1.23103   -2.60367    1.25995
H      1.16652   -2.02052    1.97466
H      1.43644   -0.74810   -0.70517
H      2.37646   -0.08936    0.92053
H      1.21757    2.12042    0.95465
H      0.24001    1.49268   -0.64186
H     -1.56168    1.94124    1.05662
H     -0.47518    0.77875    2.24088
H     -2.61517   -0.45133    0.97835
H     -1.51911   -0.46537   -0.68274
