16

C     -0.55776   -2.12064    0.03205
C      0.77729   -2.09127   -0.69609
C      1.46683   -0.76928   -0.99682
C      0.77904    1.26663   -0.17690
C     -0.63097    1.38508    0.38127
C     -1.28936   -0.81490    0.30294
H     -1.03963   -3.07226    0.24984
H      1.20448   -3.02622   -1.05468
H      1.18424   -0.48517   -2.00911
H      2.38410   -0.73944   -0.41112
H      0.85543    1.73338   -1.15754
H      1.50871    1.20198    0.62854
H     -1.35216    1.76308   -0.34149
H     -0.64024    1.52490    1.46096
H     -1.43799   -0.74530    1.37922
H     -1.83929   -0.57214   -0.60479
