16

C     -0.94297   -1.31223   -0.51261
C      0.52175   -1.61926   -0.78424
C      1.65297   -0.60794   -0.67876
C      1.22811    1.35448    0.44316
C     -0.27899    1.42682    0.25041
C     -1.55925   -0.01121   -1.00361
H     -1.56683   -2.10120   -0.09605
H      0.77097   -2.63060   -1.10094
H      1.76087   -0.09963   -1.63547
H      2.34469   -0.91275    0.10478
H      1.51883    1.01937    1.43741
H      1.79699    1.98036   -0.24240
H     -0.54337    2.18793   -0.48181
H     -0.79027    1.03455    1.12793
H     -2.48917    0.22204   -0.48768
H     -1.21666    0.21528   -2.01190
