16

C     -1.09372   -0.90618    0.66675
C      0.38026   -1.12268    0.36031
C      1.38179    0.02190    0.33891
C      0.93310    2.18895    0.96566
C     -0.54068    1.99573    1.28870
C     -1.73001    0.38158    0.16640
H     -1.67578   -1.71411    1.10680
H      0.71193   -2.12560    0.09693
H      1.49319    0.34712   -0.69411
H      2.04580   -0.08311    1.19528
H      1.10371    2.64639   -0.00747
H      1.54494    2.24685    1.86434
H     -1.14711    2.76889    0.81986
H     -0.67428    1.41241    2.19821
H     -1.39876    0.60335   -0.84672
H     -2.64803    0.60474    0.70748
