16

C     -1.14400   -0.65695    0.56688
C     -0.03672   -1.59364    0.10864
C      1.18217   -1.00832   -0.58795
C      1.16843    1.07492    0.38682
C     -0.10611    1.90514    0.38501
C     -1.69246    0.41844   -0.35847
H     -1.49921   -0.77877    1.58874
H     -0.11061   -2.65841    0.32314
H      0.95621   -0.78647   -1.62961
H      2.10825   -1.30790   -0.10014
H      1.86169    1.39165   -0.39062
H      1.34846    0.62158    1.36017
H     -0.18971    2.56943   -0.47352
H     -0.56971    1.99758    1.36576
H     -2.62273    0.83560    0.02350
H     -1.29916    0.37769   -1.37285
