16

C     -1.66134   -1.11275    0.34643
C     -0.77327   -1.39645    1.54820
C      0.72924   -1.24968    1.36252
C      0.71564    1.04995    1.40472
C      0.25826    1.45359    0.01132
C     -1.69039    0.27200   -0.28221
H     -2.34382   -1.89246    0.01255
H     -1.23133   -1.74135    2.47363
H      1.27295   -1.31817    2.30327
H      1.02117   -1.47739    0.33869
H     -0.08505    1.09269    2.14121
H      1.79293    1.16082    1.51641
H     -0.20169    2.44039    0.01540
H      0.80277    0.92465   -0.76910
H     -2.28151    0.94043    0.34156
H     -1.51793    0.19733   -1.35459
