16

C     -0.78252   -1.46553   -0.83370
C      0.68693   -1.08276   -0.92095
C      0.94803    0.06995   -1.87834
C      0.36401    1.59881   -0.26224
C     -0.68183    1.40634    0.82537
C     -1.52775   -0.63685    0.20142
H     -1.20264   -2.28866   -1.40917
H      1.42386   -1.61845   -0.32500
H      0.13818    0.19496   -2.59517
H      2.00950    0.29844   -1.95833
H      1.36579    1.48398    0.14837
H     -0.02265    2.19956   -1.08378
H     -1.58150    1.99865    0.66686
H     -0.26519    1.07162    1.77391
H     -2.36791   -0.14271   -0.28362
H     -1.33990   -1.06603    1.18419
