16

C     -0.36421   -0.90977   -0.01425
C      1.07836   -0.70011   -0.44839
C      1.96966    0.33870    0.21493
C      0.93062    2.30257    0.80981
C     -0.49399    1.78639    0.94300
C     -1.36091    0.16114   -0.43052
H     -0.64851   -1.83705    0.48024
H      1.48368   -1.40439   -1.17290
H      2.14350    0.05919    1.25270
H      2.56459    0.84685   -0.54215
H      1.11727    2.78964   -0.14583
H      1.39770    2.47062    1.77880
H     -0.57604    1.07728    1.76504
H     -1.19755    2.48374    0.49129
H     -2.30401    0.07857    0.10713
H     -1.12312    0.55310   -1.41802
