16

C     -1.32980   -0.77714   -1.85780
C      0.14460   -1.08338   -1.64390
C      0.52363   -1.23237   -0.17840
C      0.74115    1.05189   -0.01996
C     -0.66420    1.63184   -0.06872
C     -1.70363    0.69684   -1.89215
H     -2.01766   -1.60652   -2.01331
H      0.81996   -1.16827   -2.49354
H      1.54645   -1.58856   -0.06756
H     -0.33716   -1.31491    0.48307
H      1.27253    1.18065   -0.96144
H      1.11169    0.96545    1.00012
H     -1.34096    1.14347    0.63045
H     -0.66472    2.64649   -0.46346
H     -2.70634    0.85133   -1.49714
H     -1.11416    1.22193   -2.64191
