16

C     -1.31253   -1.29680    0.28469
C      0.16005   -1.54129    0.57652
C      1.19549   -0.46363    0.29355
C      0.16268    1.06330    1.66907
C     -0.71515    1.79575    0.66578
C     -1.87091    0.02209   -0.22747
H     -1.99865   -2.12605    0.44837
H      0.47478   -2.49386    0.99931
H      1.12142   -0.13944   -0.74315
H      2.05379   -0.51005    0.96175
H     -0.39378    0.35094    2.27589
H      1.06246    1.63556    1.88871
H     -0.19391    2.05048   -0.25549
H     -1.54150    2.29868    1.16532
H     -2.76510    0.29972    0.32811
H     -1.58416    0.16616   -1.26783
