16

C     -1.05517   -1.33401   -0.31909
C      0.38790   -1.74485   -0.56853
C      1.50139   -0.77735   -0.93952
C      1.14340    0.50689    0.93474
C     -0.22812    1.11277    0.67876
C     -1.61125    0.00362   -0.78285
H     -1.71856   -2.03934    0.17854
H      0.63921   -2.79000   -0.39614
H      1.21302   -0.07129   -1.71647
H      2.48600   -1.13613   -0.64434
H      1.11832   -0.35651    1.59751
H      1.95362    1.20033    0.71560
H     -0.20121    1.90780   -0.06457
H     -0.88028    0.95769    1.53664
H     -2.50623    0.31469   -0.24658
H     -1.30412    0.20844   -1.80708
