16

C     -0.56364   -1.71485    0.94835
C      0.95662   -1.70501    0.90224
C      1.61774   -0.88300   -0.19354
C      1.34429    1.25449    0.61058
C     -0.09467    1.66868    0.87811
C     -1.21001   -0.33814    0.96884
H     -1.13101   -2.63928    1.04173
H      1.49093   -2.30675    1.63547
H      0.96326   -0.74781   -1.05301
H      2.70207   -0.90173   -0.09763
H      1.72709    1.69825   -0.30696
H      1.85277    0.93769    1.51966
H     -0.22733    2.00303    1.90571
H     -0.62087    1.99606   -0.01703
H     -1.66811   -0.17718   -0.00560
H     -1.45602   -0.10848    2.00424
