16

C     -0.26551   -1.38436    0.62127
C      1.21483   -1.10476    0.83060
C      1.71898   -0.09569   -0.18976
C      0.67924    1.86179    0.42464
C     -0.78087    1.84079    0.85048
C     -1.13468   -0.37319    1.35314
H     -0.59115   -2.24983    0.04672
H      1.77995   -1.63059    1.59829
H      1.18481   -0.19755   -1.13295
H      2.73362    0.21742    0.05062
H      0.79610    2.24783   -0.58662
H      1.34450    1.89927    1.28567
H     -1.46511    1.87195    0.00420
H     -0.92750    2.20585    1.86565
H     -2.12058   -0.33765    0.89265
H     -0.76398   -0.24912    2.36926
