16

C     -0.40054   -1.61591    0.30722
C      0.92646   -1.51772   -0.42956
C      1.79369   -0.27178   -0.33420
C      1.37873    0.33166    1.84615
C      0.00898    0.99303    1.83778
C     -1.26883   -0.38450    0.51522
H     -0.75149   -2.60337    0.60214
H      1.26115   -2.36088   -1.03147
H      2.83458   -0.52410   -0.13875
H      1.32987    0.56626   -0.85177
H      2.17953    1.06919    1.83607
H      1.35064   -0.68604    2.23194
H     -0.07892    1.78950    1.10073
H     -0.47903    0.87190    2.80344
H     -1.33672    0.18073   -0.41280
H     -1.97293   -0.51959    1.33456
