16

C     -0.71023   -1.28329   -0.00620
C      0.69022   -1.48214   -0.56532
C      1.80910   -1.37403    0.45936
C      1.15925    0.72612    1.13562
C     -0.13593    1.30605    0.58796
C     -1.48230   -0.11985   -0.60939
H     -1.10226   -1.94249    0.76644
H      0.84903   -1.74702   -1.60926
H      1.59303   -1.97208    1.34308
H      2.75629   -1.10640   -0.00597
H      2.03110    1.15882    0.64778
H      1.04134    0.33634    2.14532
H     -0.90964    1.37128    1.35115
H      0.02594    1.91333   -0.30105
H     -1.14423    0.13698   -1.61192
H     -2.45350    0.00533   -0.13353
