16

C     -1.04816   -1.30741   -0.79989
C      0.41325   -1.31933   -0.37851
C      1.34833   -0.44072   -1.19532
C      1.18765    1.21086    0.39739
C     -0.30983    1.47718    0.41629
C     -1.79378   -0.01440   -0.50709
H     -1.50113   -2.19701   -1.23419
H      0.69911   -1.94699    0.46383
H      0.85113    0.16372   -1.95214
H      2.37502   -0.79693   -1.12944
H      1.53042    0.55227    1.19369
H      1.75267    1.95982   -0.15502
H     -0.59491    2.19044   -0.35528
H     -0.70961    1.30942    1.41497
H     -2.38856   -0.13548    0.39673
H     -1.97170    0.50740   -1.44592
