16

C     -1.89265   -1.15381   -0.05562
C     -0.71468   -1.91199    0.53681
C      0.60815   -1.79107   -0.20417
C      1.06281    0.37265    0.42975
C      0.34982    1.15104   -0.66544
C     -1.77689    0.32449   -0.39442
H     -2.83624   -1.68087   -0.18623
H     -0.86128   -2.57456    1.38811
H      0.43373   -1.76378   -1.27848
H      1.44750   -2.16427    0.38023
H      0.50330    0.33126    1.36279
H      2.13346    0.32194    0.23878
H      0.08776    2.15785   -0.34450
H      0.56888    0.76746   -1.66054
H     -1.99950    0.90840    0.49711
H     -1.95294    0.47278   -1.45853
