16

C     -0.73149   -1.07869   -0.90331
C      0.56366   -1.54729   -1.54859
C      1.83729   -0.94071   -0.97984
C      1.35259    1.30707   -0.92678
C     -0.05751    1.73028   -0.54442
C     -1.40881    0.14145   -1.50834
H     -1.14565   -1.67216   -0.09000
H      0.54847   -2.37317   -2.25774
H      1.88287   -1.10788    0.09501
H      2.60715   -0.85588   -1.74498
H      2.04040    1.45066   -0.09514
H      1.49439    1.34708   -2.00550
H     -0.42386    2.54912   -1.16138
H     -0.33100    1.42705    0.46483
H     -2.29768    0.43215   -0.95091
H     -1.11826    0.28982   -2.54703
