16

C     -0.48142   -1.43457    0.58059
C      0.88652   -1.50542   -0.08060
C      1.53017   -0.29661   -0.74245
C      0.93679    1.45743    0.62191
C     -0.56483    1.33303    0.83020
C     -1.60299   -0.55936    0.04241
H     -0.63553   -2.05582    1.46122
H      1.41620   -2.45632   -0.05978
H      0.95752    0.02682   -1.61009
H      2.58827   -0.22539   -0.49614
H      1.20910    2.19635   -0.12987
H      1.51654    1.08459    1.46466
H     -1.13094    1.93189    0.11870
H     -0.80570    1.01651    1.84368
H     -2.48135   -0.57778    0.68543
H     -1.51686   -0.37493   -1.02712
