16

C     -1.24674   -1.60049    0.85485
C      0.19418   -1.81803    0.41911
C      0.80673   -0.93877   -0.66034
C     -0.40690    0.98652   -0.32768
C     -1.90982    0.93764   -0.09841
C     -2.35177   -1.31657   -0.15105
H     -1.44617   -1.65169    1.92388
H      0.78438   -2.59563    0.90099
H      1.74319   -0.49126   -0.33154
H      0.47162   -1.26394   -1.64385
H      0.12379    1.16325    0.60638
H     -0.16140    1.24629   -1.35607
H     -2.49387    1.17687   -0.98554
H     -2.19934    1.02112    0.94780
H     -2.05134   -1.45581   -1.18819
H     -3.33752   -1.34469    0.31030
