16

C     -0.50735   -1.03739   -0.19588
C      0.85575   -0.83848   -0.84076
C      1.36345    0.47428   -1.41734
C      1.66968    1.30664    0.70484
C      0.31100    1.16181    1.37324
C     -1.39014    0.12697    0.22659
H     -0.85230   -2.05341   -0.01171
H      1.51804   -1.70243   -0.82785
H      0.58147    1.18289   -1.68512
H      2.38482    0.39148   -1.78514
H      2.37118    0.51571    0.96499
H      1.87261    2.31913    0.35985
H      0.32098    0.37036    2.12080
H     -0.28199    2.07232    1.30485
H     -1.96240   -0.07899    1.12960
H     -1.62955    0.75918   -0.62683
