16

C     -0.82973   -1.42381   -0.33375
C      0.63419   -1.05786   -0.52463
C      1.34084   -0.65835    0.76167
C      0.67953    1.53892    0.60388
C     -0.76637    1.54740    0.13163
C     -1.79522   -0.31748   -0.73049
H     -1.12053   -2.42954   -0.03520
H      1.08593   -1.13160   -1.51241
H      0.75911   -0.89651    1.65060
H      2.41099   -0.52974    0.60811
H      1.39534    1.73199   -0.19341
H      0.78732    1.70810    1.67398
H     -0.85468    2.02911   -0.84073
H     -1.44814    1.50584    0.97945
H     -2.65915   -0.30633   -0.06805
H     -1.69189   -0.09784   -1.79181
