16

C     -0.71006   -1.89731    0.17705
C      0.59320   -2.25428   -0.52116
C      1.23374   -1.27932   -1.49723
C      1.41630    0.50774   -0.06080
C      0.17613    1.30435    0.31484
C     -1.26552   -0.48422    0.26760
H     -1.30625   -2.71354    0.58145
H      1.04411   -3.22660   -0.33013
H      0.50304   -0.89893   -2.20905
H      2.30998   -1.42746   -1.56862
H      1.99936    1.04364   -0.80791
H      1.69114   -0.19163    0.72702
H     -0.31698    1.78128   -0.53057
H      0.21005    1.61582    1.35752
H     -1.49480   -0.24254    1.30410
H     -1.72048   -0.23271   -0.68900
