16

C     -0.56300   -1.81886   -0.90537
C      0.95336   -1.86593   -0.79663
C      1.65944   -0.70084   -1.47306
C      0.98239    0.90700    0.02585
C     -0.39482    1.11458    0.63735
C     -1.33562   -0.88759    0.01623
H     -1.05657   -2.50950   -1.58700
H      1.44415   -2.74840   -0.38973
H      1.11623   -0.38279   -2.36136
H      2.71901   -0.67040   -1.22462
H      1.16324    1.62348   -0.77370
H      1.64171    0.41055    0.73591
H     -0.40224    0.98889    1.71878
H     -1.05292    1.73318    0.02942
H     -1.26510   -1.26184    1.03618
H     -2.10261   -0.37598   -0.56282
