16

C     -0.82271   -1.57310   -0.36253
C      0.54517   -1.42130    0.28497
C      1.61036   -0.86757   -0.64900
C      1.29862    1.40934   -0.55546
C     -0.20597    1.55299   -0.38434
C     -1.48900   -0.29548   -0.84965
H     -1.25027   -2.56233   -0.51681
H      0.70954   -1.82472    1.28268
H      1.29869   -0.91120   -1.69125
H      2.59233   -0.89755   -0.17979
H      1.84382    1.50812    0.38174
H      1.64022    1.60524   -1.57048
H     -0.65842    2.09641   -1.21219
H     -0.49058    1.48869    0.66457
H     -2.28266   -0.01141   -0.16065
H     -1.36742   -0.21512   -1.92858
