16

C     -1.31409   -1.00082   -1.42752
C      0.12801   -1.24241   -1.00872
C      1.04962   -0.04727   -1.19797
C      0.73227    0.55515    0.99899
C     -0.76024    0.84201    1.06095
C     -2.14393   -0.13621   -0.49084
H     -1.70028   -1.46102   -2.33542
H      0.41108   -2.22244   -0.62842
H      0.55637    0.80138   -1.66894
H      2.09893   -0.33135   -1.13808
H      1.34072    1.45190    0.89424
H      1.00223   -0.41539    1.41193
H     -0.98880    1.82484    0.65213
H     -1.22763    0.28530    1.87149
H     -2.67528   -0.77729    0.21059
H     -2.41315    0.78604   -1.00300
