16

C     -0.63672   -0.68941    0.36682
C      0.67685   -0.97203   -0.34599
C      1.44028    0.15126   -1.03078
C      0.79887    2.00194    0.17498
C     -0.57298    2.01940    0.83182
C     -1.66748    0.27862   -0.19352
H     -0.79318   -1.19809    1.31655
H      1.06704   -1.98836   -0.34107
H      0.98407    0.37634   -1.99336
H      2.47760    0.17622   -0.70115
H      0.81561    2.57534   -0.75037
H      1.57984    1.81377    0.90983
H     -0.58649    1.55716    1.81746
H     -1.24236    2.77074    0.41619
H     -2.59720    0.25567    0.37254
H     -1.47365    0.59435   -1.21727
