16

C     -1.28831   -1.66253    0.70512
C     -0.17615   -1.58562   -0.32958
C      1.23494   -1.33563    0.18020
C      0.82811    0.86701    0.70281
C     -0.12238    0.79608    1.88823
C     -1.95701   -0.36739    1.13987
H     -1.63373   -2.64361    1.02661
H     -0.41402   -1.77118   -1.37561
H      1.92672   -1.06529   -0.61584
H      1.39568   -1.81513    1.14434
H      1.84827    1.07069    1.02392
H      0.31657    1.08088   -0.23417
H     -0.66510    1.73106    2.01708
H      0.15944    0.02340    2.60158
H     -2.37580   -0.44268    2.14200
H     -2.23098    0.23680    0.27661
