16

C     -0.33447   -2.17172    0.77151
C      0.83446   -1.19898    0.79976
C      1.14672   -0.61035   -0.56755
C     -0.01601    1.32278   -0.11886
C     -1.29737    0.75473    0.47207
C     -1.67847   -1.47082    0.89777
H     -0.17644   -3.24495    0.67983
H      1.33698   -0.99719    1.74419
H      0.45518   -0.92674   -1.34664
H      2.17094   -0.24370   -0.61057
H      0.71627    1.63278    0.62478
H     -0.12510    1.65817   -1.14888
H     -2.08136    0.69145   -0.28072
H     -1.34807    0.96592    1.53892
H     -2.27886   -1.69573    0.01785
H     -1.93071   -1.35911    1.95097
