16

C     -1.30224   -1.43795   -0.62023
C      0.18848   -1.73625   -0.66689
C      1.08926   -0.62283   -1.17916
C      0.94257    1.12167    0.31264
C     -0.31833    1.36985    1.12643
C     -1.69588   -0.16519    0.11373
H     -2.03763   -2.11241   -1.05557
H      0.52304   -2.75200   -0.46311
H      0.62121   -0.13119   -2.03037
H      2.12991   -0.83477   -0.93950
H      1.01973    1.81102   -0.52651
H      1.71003    0.65706    0.92947
H     -0.87933    2.24749    0.80963
H     -0.27241    0.92875    2.12075
H     -2.03313   -0.44731    1.10971
H     -1.95993    0.57806   -0.63672
