16

C     -1.74909   -1.23178   -0.56947
C     -0.34690   -1.81769   -0.63253
C      0.88809   -0.94407   -0.79121
C      0.73037    1.32586   -0.45533
C     -0.50435    1.86154    0.25334
C     -1.91575    0.04850    0.23470
H     -2.60918   -1.83529   -0.85448
H     -0.23583   -2.89753   -0.54997
H      1.13378   -0.88650   -1.85028
H      1.47676   -1.03104    0.12050
H      0.64663    1.43641   -1.53519
H      1.60590    1.37914    0.18961
H     -1.06739    2.53966   -0.38579
H     -0.40876    1.87307    1.33781
H     -2.64346    0.68073   -0.27132
H     -1.65831   -0.17771    1.26807
