16

C     -0.64804   -0.90697   -0.17319
C      0.85078   -0.66792   -0.07422
C      1.49113    0.34276   -1.01337
C      1.21855    1.96494    0.59427
C     -0.18372    1.76098    1.14722
C     -1.56728    0.28179    0.06218
H     -1.01855   -1.91262   -0.36447
H      1.40415   -1.22181    0.68221
H      0.79828    0.79332   -1.72208
H      2.56970    0.20613   -1.07121
H      1.28289    2.77728   -0.12774
H      1.99598    1.54433    1.22991
H     -0.85645    2.57026    0.86821
H     -0.18503    1.11754    2.02547
H     -2.21616    0.10452    0.91825
H     -1.70547    0.83946   -0.86261
