16

C     -0.60824   -1.87385   -0.12269
C      0.84004   -1.44781    0.06279
C      1.38924   -0.42996   -0.92509
C      0.54843    1.28322    0.35877
C     -0.94294    1.30276    0.06023
C     -1.70320   -0.86227    0.17954
H     -0.82239   -2.91440   -0.36059
H      1.41203   -1.87924    0.88248
H      2.45507   -0.25982   -0.78229
H      0.75471   -0.31197   -1.80189
H      1.09161    2.03051   -0.21728
H      0.76899    0.83006    1.32383
H     -1.14676    1.39635   -1.00515
H     -1.51812    1.64861    0.91749
H     -2.35016   -0.74964   -0.68885
H     -1.87443   -0.83138    1.25427
