16

C     -0.19043   -1.62140    1.21498
C      1.04230   -2.28129    0.61633
C      1.80811   -1.63346   -0.52709
C      1.45236    0.57726   -0.00132
C     -0.03292    0.87982    0.12565
C     -1.26676   -1.05025    0.30457
H     -0.27595   -1.57901    2.29946
H      1.38669   -3.21727    1.05283
H      1.24385   -1.67359   -1.45732
H      2.87788   -1.60414   -0.32691
H      1.85939    0.91021   -0.95463
H      1.93751    0.43595    0.96305
H     -0.51641    1.05913   -0.83321
H     -0.28855    1.24078    1.12050
H     -2.09735   -0.60533    0.85001
H     -1.23635   -1.48791   -0.69184
