16

C     -0.22145   -0.82119    0.39382
C      1.23184   -0.37248    0.40145
C      1.72359    0.93349   -0.20369
C      0.25204    2.59927    0.38791
C     -0.76019    1.85164    1.24238
C     -1.33551    0.08433   -0.10860
H     -0.47147   -1.81098    0.77199
H      1.96111   -1.04907    0.84372
H      2.50508    1.37692    0.41110
H      1.55048    0.93412   -1.27857
H     -0.10077    2.76132   -0.62924
H      0.91848    3.18940    1.01476
H     -0.29909    1.24930    2.02334
H     -1.73908    2.32739    1.21428
H     -2.26958   -0.05864    0.43214
H     -1.14067    0.39067   -1.13501
