16

C     -0.31375   -1.23533    0.32908
C      0.79388   -1.25171   -0.71319
C      1.89710   -0.20666   -0.77915
C      1.37306    1.52767    0.63780
C     -0.10941    1.38057    0.94503
C     -1.43233   -0.25298    0.01716
H     -0.32603   -1.95822    1.14301
H      0.75544   -2.04653   -1.45615
H      1.77510    0.40066   -1.67448
H      2.76824   -0.54044   -0.21789
H      1.57538    2.31024   -0.09158
H      2.01454    1.14738    1.43104
H     -0.71773    2.06973    0.36165
H     -0.26041    0.93941    1.92885
H     -2.21385   -0.23716    0.77498
H     -1.46922   -0.01489   -1.04458
