16

C     -0.21053   -0.27924    0.89231
C      1.07558   -0.65487    0.17238
C      1.67812    0.11348   -0.99387
C      1.74972    2.08740    0.18459
C      0.27710    2.38458    0.42293
C     -1.23449    0.66047    0.27426
H     -0.41309   -0.71678    1.86840
H      1.62882   -1.49640    0.58586
H      0.94498    0.42731   -1.73504
H      2.74982   -0.05313   -1.08889
H      2.16768    2.68739   -0.62204
H      2.23746    1.60565    1.03038
H     -0.21883    2.78533   -0.45956
H      0.08371    2.54392    1.48243
H     -1.91469    1.10554    0.99853
H     -1.40009    0.41150   -0.77260
