16

C     -1.66586   -1.08028   -0.20797
C     -0.18820   -1.33991    0.04208
C      0.79144   -1.18840   -1.11157
C      0.96033    1.03682   -0.55466
C     -0.30673    1.62519    0.04711
C     -2.15101    0.27516    0.28290
H     -2.33641   -1.88174   -0.51332
H      0.11015   -1.61502    1.05228
H      0.28795   -1.17881   -2.07683
H      1.80703   -1.46800   -0.83637
H      1.06226    1.24576   -1.61828
H      1.72552    0.85439    0.19804
H     -0.84381    2.23505   -0.67743
H     -0.23346    1.72679    1.12861
H     -2.19542    0.27438    1.37072
H     -2.76674    0.75160   -0.47816
