16

C     -0.81195   -1.57808    0.13983
C      0.67632   -1.41003    0.40488
C      1.49058   -0.30365   -0.24817
C      0.51708    1.61254    0.57085
C     -0.65920    1.15465    1.41960
C     -1.78641   -0.41060    0.17103
H     -1.19699   -2.57953   -0.04470
H      1.16350   -2.16936    1.01421
H      1.22952   -0.21551   -1.30145
H      2.41759   -0.11786    0.29171
H      0.22023    1.92772   -0.42809
H      1.34215    1.94537    1.19841
H     -0.36879    0.42271    2.17143
H     -1.47005    1.88092    1.39968
H     -1.77902    0.11258   -0.78371
H     -2.54312   -0.54928    0.94141
