16

C     -0.73676   -1.43203   -0.69492
C      0.73267   -1.15386   -0.97216
C      1.33533    0.24260   -0.95567
C      0.52931    0.69508    1.15048
C     -0.94378    0.94525    0.86565
C     -1.80516   -0.35669   -0.82033
H     -1.03578   -2.45115   -0.45575
H      1.38878   -2.00770   -1.13239
H      0.79670    0.92311   -1.61302
H      2.36879    0.25509   -0.61343
H      0.73884   -0.30221    1.53368
H      1.08903    1.61930    1.28422
H     -1.54895    0.51882    1.66394
H     -1.09552    1.80562    0.21597
H     -2.70170   -0.57268   -0.24164
H     -1.68545    0.18662   -1.75619
