16

C     -0.83361   -1.20471   -1.51095
C      0.41445   -1.91291   -1.00677
C      1.74536   -1.31092   -1.43083
C      1.44707    0.69029   -0.33702
C      0.28906    0.56166    0.64083
C     -1.46971   -0.09962   -0.68166
H     -1.28756   -1.55086   -2.43795
H      0.31788   -2.84029   -0.44476
H      1.71709   -0.99038   -2.47092
H      2.56527   -1.65458   -0.80237
H      2.39868    0.65887    0.19097
H      1.15831    1.18036   -1.26534
H     -0.11874    1.53602    0.90472
H      0.30201   -0.37638    1.19332
H     -2.10001   -0.52033    0.10004
H     -1.51204    0.83547   -1.23765
