16

C     -0.87182   -1.93722    0.47967
C      0.50500   -1.40637    0.84845
C      1.26870   -0.64654   -0.22532
C      0.04518    1.22856    0.30123
C     -1.31804    0.94926    0.91550
C     -1.94237   -1.01970   -0.09097
H     -1.07469   -2.99504    0.63801
H      0.91991   -1.61186    1.83377
H      2.20433   -0.21439    0.12562
H      0.98374   -0.98932   -1.21861
H      0.73181    1.59781    1.06118
H     -0.00762    1.41133   -0.77075
H     -2.09904    1.56239    0.46890
H     -1.26581    0.48486    1.89883
H     -2.87215   -1.08783    0.47133
H     -1.73304   -0.76294   -1.12808
