16

C     -0.63408   -1.96605    0.72573
C      0.86489   -2.10628    0.94224
C      1.88068   -1.09812    0.42709
C      1.50259    1.17063    0.41885
C      0.03272    1.03009    0.78414
C     -1.25308   -0.73776    0.07634
H     -1.27999   -2.80383    0.98291
H      1.23249   -3.03439    1.37664
H      1.90393   -1.17268   -0.65882
H      2.61966   -0.89549    1.20050
H      1.69239    1.26069   -0.64942
H      2.07951    1.56823    1.25217
H     -0.57110    1.70013    0.17440
H     -0.07864    0.63586    1.79285
H     -2.11234   -0.39056    0.64769
H     -1.00218   -0.71236   -0.98277
