16

C     -0.67750   -1.11644    0.64852
C      0.41673   -1.29365   -0.39298
C      0.72500   -0.25317   -1.45878
C      0.53926    1.62546   -0.14482
C     -0.78262    1.60925    0.60756
C     -1.94614   -0.34938    0.30836
H     -0.55385   -1.58083    1.62539
H      0.99899   -2.21293   -0.35962
H     -0.12173   -0.09340   -2.12424
H      1.79576   -0.13793   -1.61854
H      0.51407    2.26878   -1.02280
H      1.38052    1.31174    0.47097
H     -1.57936    2.12341    0.07260
H     -0.63585    1.45537    1.67533
H     -2.57904   -0.13057    1.16678
H     -2.21696   -0.49095   -0.73661
