16

C     -1.15248   -0.90283   -0.78028
C      0.27504   -1.07367   -1.27672
C      1.25988    0.07732   -1.41408
C      0.81443    0.98776    0.65061
C     -0.63272    1.44846    0.56564
C     -1.92357    0.38767   -1.01169
H     -1.63484   -1.74213   -0.28216
H      0.61014   -2.08788   -1.48717
H      2.27990   -0.22256   -1.17967
H      0.87752    0.88141   -2.04062
H      0.93607    0.02233    1.13895
H      1.52040    1.80937    0.54149
H     -0.74871    2.34852   -0.03583
H     -1.20364    1.06910    1.41150
H     -2.83191    0.46591   -0.41660
H     -1.68783    0.81241   -1.98604
