16

C     -1.56341   -1.25782   -0.28141
C     -0.25592   -1.46928    0.46636
C      1.03745   -0.87207   -0.06662
C      0.56353    1.28321    0.58181
C     -0.55538    1.85959   -0.27232
C     -2.06957    0.15259   -0.54239
H     -2.19205   -2.11998   -0.49752
H     -0.29772   -2.06856    1.37428
H      0.98444   -0.63141   -1.12709
H      1.87961   -1.10878    0.58151
H      1.53562    1.66755    0.27739
H      0.20400    0.91531    1.54135
H     -0.29769    1.88788   -1.32974
H     -1.19800    2.51684    0.31113
H     -2.64680    0.48316    0.31950
H     -2.15064    0.30749   -1.61699
