16

C     -0.96377   -0.69676   -1.41306
C      0.41331   -1.10345   -0.91139
C      1.45705   -0.01614   -0.70667
C      0.52338    1.42295    0.82549
C     -0.95406    1.47163    0.46698
C     -2.01424   -0.39353   -0.35565
H     -1.17528   -0.74438   -2.47992
H      0.64606   -2.16543   -0.85453
H      1.45810    0.67389   -1.54880
H      2.23410   -0.33798   -0.01535
H      1.06490    2.29914    0.47282
H      0.72839    0.76186    1.66589
H     -1.10611    1.94937   -0.49945
H     -1.57454    1.40272    1.35893
H     -1.92129   -1.07510    0.48824
H     -2.86902    0.14393   -0.76283
