16

C     -1.15561   -1.63818   -0.34051
C      0.35471   -1.79792   -0.42311
C      1.09543   -0.83677   -1.34020
C      0.55468    1.15406   -0.32312
C     -0.79111    1.32103    0.36586
C     -1.70447   -0.74925    0.76497
H     -1.78068   -2.27967   -0.95937
H      0.82035   -2.66676    0.03896
H      2.15713   -0.79585   -1.10258
H      0.55364   -0.70909   -2.27588
H      0.56140    1.63457   -1.30005
H      1.34397    0.97678    0.40553
H     -0.69966    1.54879    1.42657
H     -1.58754    1.58931   -0.32628
H     -2.72227   -0.43325    0.54239
H     -1.17839   -0.94067    1.69873
