16
Generated by autodE on: 2025-05-23. charge = 0 mult = 1 E = 0.056123 Ha
C     -1.41641   -1.69173   -0.15356
C     -0.28685   -1.86448   -1.15739
C      0.77569   -0.79299   -1.34835
C      0.39665    0.49399    0.51988
C     -1.08197    0.83283    0.63209
C     -2.50439   -0.65515   -0.38877
H     -1.41134   -2.33831    0.72230
H     -0.21282   -2.82015   -1.67355
H      1.75903   -1.15974   -1.05879
H      0.44971   -0.04720   -2.07144
H      0.98284    1.32467    0.13040
H      0.69493   -0.33160    1.16389
H     -1.38037    1.61299   -0.06623
H     -1.48618    0.56118    1.60582
H     -3.34109   -0.79008    0.29465
H     -2.47216   -0.21154   -1.38250
