16

C     -0.86252   -1.41825   -0.48063
C      0.12824   -1.71135    0.63557
C      1.56875   -1.30573    0.36361
C      1.49532    0.99276    0.40647
C      0.01551    1.33390    0.31974
C     -1.61620   -0.09792   -0.43325
H     -1.08881   -2.19261   -1.21163
H     -0.18855   -2.32254    1.47896
H      1.80957   -1.44267   -0.68928
H      2.17230   -1.35157    1.26857
H      1.88692    1.14668    1.41061
H      2.00949    1.04141   -0.55197
H     -0.46133    1.25015    1.29490
H     -0.17143    2.00098   -0.52013
H     -2.29645   -0.08841    0.41675
H     -1.69365    0.32867   -1.43192
