16

C     -1.20324   -1.55376    0.26493
C      0.13617   -1.85094   -0.39165
C      1.35382   -1.36618    0.38028
C      0.69046    0.67134    1.21619
C     -0.53015    1.07677    0.40411
C     -2.03019   -0.46556   -0.40253
H     -1.51837   -2.12378    1.13726
H      0.19015   -2.46276   -1.29051
H      1.43647   -1.89955    1.32580
H      2.08954   -0.93385   -0.29583
H      1.57963    1.22321    0.91592
H      0.43342    0.23851    2.18155
H     -0.25547    1.31478   -0.62216
H     -1.31716    1.45211    1.05608
H     -1.82891   -0.37835   -1.46893
H     -2.93795   -0.25310    0.15975
