16

C     -0.87956   -1.52989   -0.73610
C      0.61828   -1.26606   -0.71866
C      1.05684    0.13665   -1.11057
C      0.31752    1.20478    0.78753
C     -1.16029    1.26489    1.14274
C     -1.83329   -0.63672    0.04250
H     -1.25390   -2.37769   -1.30734
H      1.30241   -2.08641   -0.50841
H      0.37214    0.57922   -1.83211
H      2.11671    0.29525   -0.91859
H      0.65772    2.14778    0.36285
H      0.83328    0.43625    1.36082
H     -1.72983    1.93895    0.50508
H     -1.33473    0.99167    2.18210
H     -2.03302   -1.09891    1.00780
H     -2.41373   -0.05861   -0.67456
