16

C     -1.42582   -1.46623    0.51440
C      0.00560   -1.96751    0.39948
C      1.11295   -1.23708   -0.34469
C      0.79745    1.03619   -0.19315
C     -0.43956    1.12117    0.68793
C     -1.91251   -0.30881   -0.34412
H     -2.09142   -1.92371    1.24440
H      0.23581   -2.91999    0.87383
H      0.95375   -1.31325   -1.41901
H      2.01490   -1.20082    0.26399
H      0.57538    1.20595   -1.24539
H      1.70433    1.25038    0.36991
H     -0.31342    0.58520    1.62716
H     -1.05526    1.98673    0.44907
H     -1.53704   -0.37709   -1.36377
H     -2.82198    0.14823    0.04228
