16

C      0.45986   -0.27355    0.66365
C      1.41930   -0.33986   -0.51472
C      1.06459    0.06265   -1.93800
C      0.68426    2.23432   -1.28267
C     -0.57432    2.16837   -0.43100
C     -1.00146    0.12949    0.53859
H      0.83400   -0.56558    1.64342
H      2.44548   -0.62681   -0.29152
H      0.04433   -0.19262   -2.21948
H      1.94580    0.22777   -2.55567
H      0.48561    2.57505   -2.29745
H      1.59869    2.28332   -0.69382
H     -1.47519    2.02059   -1.02424
H     -0.42536    2.67779    0.51960
H     -1.39588    0.57948    1.44814
H     -1.49949   -0.46902   -0.22239
