16

C     -0.94828   -1.03894    1.18346
C      0.22702   -1.76384    0.54581
C      1.40402   -0.93871    0.04843
C      1.26656    1.15743    0.98521
C     -0.10780    1.75326    1.24953
C     -1.56663    0.15623    0.47439
H     -1.34378   -1.45389    2.10899
H      0.20652   -2.84698    0.43817
H      2.30756   -1.20571    0.59400
H      1.22343   -0.64432   -0.98406
H      1.71644    0.79473    1.90792
H      1.72437    1.56251    0.08429
H     -0.37873    2.53529    0.54217
H     -0.46128    1.59389    2.26688
H     -1.23240    0.26154   -0.55639
H     -2.47504    0.48751    0.97477
