16

C     -1.80325    0.22899   -0.42259
C     -0.69660   -0.79191   -0.63828
C      0.77304   -0.40539   -0.57252
C      1.15354    1.74311    0.15510
C     -0.21528    2.26914    0.55925
C     -1.67136    1.59220   -1.08426
H     -2.64408   -0.04085    0.21412
H     -0.98082   -1.82608   -0.82518
H      1.14297   -0.22841   -1.58105
H      1.21989   -0.83284    0.32355
H      1.46615    2.10658   -0.82240
H      1.75223    1.48357    1.02662
H     -0.34684    3.31577    0.28982
H     -0.65964    1.68140    1.36077
H     -2.50474    2.24813   -0.83818
H     -0.99831    1.57292   -1.93981
