16

C     -1.32801   -0.71233    0.74384
C     -0.14040   -1.26453   -0.02953
C      1.14097   -0.45523   -0.15863
C      0.62838    1.54802    0.84861
C     -0.75119    2.11641    1.14435
C     -2.07921    0.49468    0.20312
H     -1.65698   -1.27283    1.61722
H     -0.19387   -2.27352   -0.43485
H      1.24132   -0.10011   -1.18291
H      1.87467   -0.79804    0.56903
H      1.06636    2.03415   -0.02155
H      1.07229    1.14596    1.75780
H     -1.08104    2.87704    0.43867
H     -1.07532    1.96142    2.17209
H     -2.94387    0.74856    0.81404
H     -1.84475    0.68023   -0.84374
