16

C     -0.56330   -1.99134    0.06345
C      0.85321   -1.73526    0.55473
C      1.62273   -0.63612   -0.16169
C      0.60297    1.01662    1.07070
C     -0.81618    1.02297    0.52327
C     -1.70096   -1.09755    0.53294
H     -0.73607   -2.86967   -0.55615
H      1.27622   -2.37541    1.32705
H      1.24606   -0.48012   -1.17120
H      2.59988   -0.44752    0.27983
H      1.19298    1.83701    0.66550
H      0.68899    0.47524    2.01136
H     -0.82821    1.07607   -0.56410
H     -1.52582    1.37609    1.26962
H     -1.83677   -1.19677    1.60859
H     -2.38802   -0.88089   -0.28336
