16

C     -1.34490   -0.96526    0.15790
C     -0.04190   -1.32051   -0.54171
C      1.02288   -0.31459   -0.95149
C      1.35659    1.43750    0.50078
C     -0.04846    1.43864    1.08349
C     -1.90193    0.45009    0.15238
H     -1.90413   -1.76397    0.64218
H      0.11020   -2.36440   -0.81071
H      0.64362    0.30474   -1.76261
H      2.01366   -0.67929   -0.68568
H      1.51420    2.15755   -0.30049
H      2.09321    1.02065    1.18559
H     -0.53854    2.39477    0.90751
H     -0.13586    0.69643    1.87520
H     -1.91008    0.86536   -0.85400
H     -2.53948    0.64608    1.01288
