16

C     -0.94552   -0.84008    0.45044
C      0.32890   -1.58985    0.09386
C      1.45523   -0.93072   -0.68746
C      1.20226    1.14706    0.26602
C     -0.09898    1.79670    0.71152
C     -1.49316    0.32126   -0.36500
H     -1.45619   -1.16314    1.35600
H      0.43277   -2.63132    0.39350
H      1.17377   -0.83568   -1.73487
H      2.43245   -1.09940   -0.23809
H      1.50326    1.50148   -0.71842
H      1.76006    0.81315    1.13934
H     -0.33595    2.70340    0.15737
H     -0.43303    1.50178    1.70489
H     -1.13316    0.32086   -1.39248
H     -2.38948    0.76550    0.06463
