16

C     -0.71723   -1.65652   -0.37979
C      0.78663   -1.56560   -0.58850
C      1.33629   -0.30201   -1.23250
C      1.28286    0.73968    0.81744
C     -0.11081    0.96761    1.38262
C     -1.46959   -0.48452    0.23173
H     -1.23565   -2.56317   -0.68709
H      1.41185   -2.39469   -0.26150
H      2.42236   -0.30665   -1.30848
H      0.58663    0.21230   -1.83152
H      1.78845   -0.09150    1.30616
H      1.68312    1.63549    0.34559
H     -0.61015    1.83363    0.95131
H     -0.22517    0.53024    2.37306
H     -1.94874   -0.79470    1.15883
H     -1.74727    0.21523   -0.55475
