16

C     -0.92132   -1.87846   -0.89169
C      0.59360   -1.76575   -0.81594
C      1.39993   -0.59602   -1.35920
C      0.32131    1.39593   -0.96048
C     -0.95935    0.91803   -0.29326
C     -1.77005   -0.81297   -1.56839
H     -1.40498   -2.73628   -0.42754
H      1.13451   -2.60149   -0.37530
H      1.35564   -0.59862   -2.44702
H      2.17595   -0.30344   -0.65387
H      0.20075    1.60285   -2.02254
H      0.99325    1.84693   -0.23217
H     -1.79743    1.56812   -0.53890
H     -0.76360    0.29505    0.57789
H     -2.77522   -0.76084   -1.15336
H     -1.38573   -0.56973   -2.55756
