16

C     -0.35637   -1.10582    0.53226
C      1.00153   -1.42854   -0.07223
C      1.71651   -0.46219   -1.00418
C      1.40524    1.42138    0.27861
C      0.03661    1.89098   -0.19045
C     -1.25696    0.00243    0.00852
H     -0.70916   -1.73657    1.34646
H      1.47542   -2.37908    0.16674
H      1.13864   -0.32741   -1.91699
H      2.78759   -0.41443   -0.81489
H      2.20089    2.01172   -0.17280
H      1.36990    0.88952    1.22793
H     -0.05608    1.91122   -1.27504
H     -0.43494    2.51216    0.56923
H     -1.82088    0.46537    0.81661
H     -1.49608   -0.18013   -1.03781
