16

C     -1.36216   -1.63892    0.40773
C      0.01927   -2.16636    0.05151
C      1.14388   -1.28334   -0.46724
C      0.75937    0.97098   -0.22137
C     -0.39906    0.93583    0.76376
C     -1.89125   -0.42205   -0.33581
H     -1.94407   -2.12811    1.18701
H      0.20459   -3.23032    0.18886
H      1.11070   -1.24960   -1.55493
H      1.95622   -1.26327    0.25735
H      0.43347    1.16363   -1.24215
H      1.69533    1.22414    0.27383
H     -0.20119    0.28839    1.61641
H     -1.01552    1.83007    0.68855
H     -2.74910    0.03726    0.15250
H     -1.61073   -0.46499   -1.38690
