16
Generated by autodE on: 2025-05-23. charge = 0 mult = 1 
C     -0.89171   -1.28368   -0.18869
C      0.41282   -1.49687   -0.25989
C      1.48073   -0.47628   -0.11423
C      0.80778    1.14243   -0.24776
C     -0.40317    1.20902    0.62912
C     -1.55871    0.02257    0.03924
H     -1.57044   -2.11955   -0.31633
H      0.77396   -2.50525   -0.42837
H      2.23520   -0.56704   -0.89116
H      1.95433   -0.53004    0.86424
H      0.56743    1.28876   -1.29578
H      1.59390    1.82542    0.06304
H     -0.90555    2.17164    0.58447
H     -0.18402    0.93973    1.65711
H     -2.34285   -0.04947    0.78836
H     -1.96961    0.42850   -0.88315
