16
Generated by autodE on: 2025-05-23. charge = 0 mult = 1 
C     -0.89956   -1.32352   -0.19737
C      0.40667   -1.53765   -0.26423
C      1.50199   -0.56131   -0.11743
C      0.81071    1.26210   -0.23633
C     -0.36604    1.32034    0.65474
C     -1.60693   -0.04761    0.01741
H     -1.56473   -2.17291   -0.32578
H      0.75068   -2.55398   -0.43500
H      2.23584   -0.61487   -0.91279
H      1.97224   -0.58662    0.85981
H      0.58695    1.39767   -1.28594
H      1.65680    1.85930    0.08596
H     -0.95258    2.22932    0.57663
H     -0.16626    1.04595    1.68180
H     -2.36069   -0.09883    0.79411
H     -2.00502    0.38253   -0.89538
