16
Generated by autodE on: 2025-05-23. charge = 0 mult = 1 
C     -0.90557   -1.35577   -0.19812
C      0.40155   -1.56912   -0.27090
C      1.50909   -0.61453   -0.13590
C      0.82562    1.33831   -0.20794
C     -0.35435    1.40029    0.65465
C     -1.63203   -0.09745    0.01378
H     -1.56375   -2.21307   -0.31968
H      0.73720   -2.58960   -0.44119
H      2.21200   -0.63011   -0.95811
H      1.99986   -0.63700    0.82912
H      0.64711    1.50066   -1.26062
H      1.70891    1.84406    0.16190
H     -1.00317    2.25478    0.50685
H     -0.18971    1.16072    1.69465
H     -2.35207   -0.13139    0.82053
H     -2.04063    0.33913   -0.88878
