16
Generated by autodE on: 2025-05-23. charge = 0 mult = 1 
C     -0.89354   -1.25271   -0.18340
C      0.42494   -1.46805   -0.25625
C      1.44734   -0.37789   -0.12258
C      0.82379    1.00986   -0.23756
C     -0.46061    1.09931    0.57881
C     -1.49578    0.09685    0.07712
H     -1.58145   -2.09498   -0.31593
H      0.79252   -2.48626   -0.42454
H      2.23366   -0.51073   -0.88536
H      1.96772   -0.48408    0.84868
H      0.59056    1.21477   -1.29738
H      1.54407    1.78076    0.07890
H     -0.87219    2.12061    0.55162
H     -0.22944    0.88225    1.63671
H     -2.32172    0.00077    0.80262
H     -1.96977    0.46941   -0.85126
