10
Coordinates from ORCA-job r0_C4H6_conf0_opt_orca
  C   1.84497304879750     -0.09418046630684     -0.10898992371148
  C   0.60967289561874      0.38591185796502      0.09229225180781
  C   -0.60967077369707     -0.38597778068091     -0.09233047677305
  C   -1.84492392108055      0.09416235215374      0.10896393358826
  H   2.73306645746681      0.52362179951919      0.04273539290004
  H   2.00655921047996     -1.12706402016642     -0.43381867620522
  H   0.48236791300488      1.42573718824193      0.41762408136720
  H   -0.48241387604778     -1.42581082909085     -0.41765622110567
  H   -2.73315286886018     -0.52346226217684     -0.04271034990773
  H   -2.00647808568231      1.12706215054197      0.43378999803984
