6
Coordinates from ORCA-job r1_C2H4_conf0_opt_orca
  C   0.66373721716737      0.03918017334789      0.01040351937439
  C   -0.66370926858454     -0.03915961888770     -0.01037047903286
  H   1.29438820486979     -0.85492545896851      0.04054663925950
  H   1.18568448065929      1.00116739676488     -0.00144273955129
  H   -1.29444511031537      0.85488825071730     -0.04052547165664
  H   -1.18565552379655     -1.00115074297387      0.00148853160691
