16
Coordinates from ORCA-job p0_C6H10_opt_orca
  C   -0.89353768643765     -1.25271018962545     -0.18340424891661
  C   0.42494080805624     -1.46804626239395     -0.25625112221392
  C   1.44734205453115     -0.37789260682575     -0.12257713272080
  C   0.82378914635476      1.00985889743467     -0.23755914899304
  C   -0.46060805675258      1.09930859858920      0.57881413174592
  C   -1.49577724131692      0.09685427661575      0.07712474986686
  H   -1.58145253878695     -2.09498442080303     -0.31593342204076
  H   0.79252262353092     -2.48625525246167     -0.42454348325078
  H   2.23365610583269     -0.51073475547227     -0.88535874736164
  H   1.96772078700122     -0.48407572242139      0.84868390831455
  H   0.59056314439461      1.21477354607439     -1.29738233647789
  H   1.54407023453770      1.78075936598610      0.07889565737560
  H   -0.87219223083973      2.12061058002555      0.55161774121372
  H   -0.22943987597073      0.88224808265553      1.63671069540032
  H   -2.32172375966313      0.00077432270604      0.80262224694167
  H   -1.96977354447160      0.46941154991629     -0.85125946888320
